4
Final structure: -26.6153 hartree
B            0.000016486         -0.000006106         -0.198443671
H           -0.398747864         -1.027694939          0.214767744
H           -0.170890747          0.988422581          0.417782014
H            0.569622142          0.039278458         -1.227978354
