4
Final structure: -26.6153 hartree
B            0.000009287         -0.000020383         -0.198440520
H           -0.398587097         -1.027764992          0.214722862
H           -0.170961497          0.988338770          0.417841777
H            0.569539323          0.039446599         -1.227996384
