4
Final structure: -77.3972 hartree
C           -0.592477281          0.000000051         -0.000013669
C            0.592477363         -0.000000037          0.000013669
H           -1.645394905         -0.000000009         -0.000093859
H            1.645394823         -0.000000005          0.000093859
