6
Final structure: -78.6543 hartree
C           -0.652004594         -0.051464719         -0.000162151
C            0.651921376          0.051459924          0.000145213
H           -1.218799533          0.003355206         -0.908088293
H           -1.203551748         -0.194570886          0.907564980
H            1.203563996          0.194630198         -0.907479374
H            1.218663086         -0.003426317          0.908121285
