5
Final structure: -40.5463 hartree
C           -0.000020854          0.000015584          0.000004407
H            0.546187843          0.788037023          0.489303557
H            0.673429386         -0.801661458         -0.249998784
H           -0.766952047         -0.368108199          0.659573109
H           -0.452744327          0.381817048         -0.898882384
