5
Final structure: -40.5463 hartree
C           -0.000032954         -0.000012934         -0.000039427
H            0.547352400          0.788612165          0.487003185
H            0.673058216         -0.801519007         -0.251563032
H           -0.764665040         -0.368050989          0.662262230
H           -0.455812621          0.381070764         -0.897663052
