4
Final structure: -114.612 hartree
C           -0.006127936          0.000803319          0.000380759
O            1.166299560         -0.154997132         -0.074101117
H           -0.475027382          0.973165249         -0.183344509
H           -0.685152630         -0.819038662          0.257072815
