4
Final structure: -437.736 hartree
C           -0.108858682          0.008671699          0.001133072
S            1.467795750         -0.116955652         -0.015101953
H           -0.652971492          0.271443309          0.893062530
H           -0.705969715         -0.163221651         -0.879014245
