4
Final structure: -56.6104 hartree
N           -0.002457395         -0.000625103          0.277120506
H           -0.513911523         -0.775020220         -0.098687688
H           -0.413173334          0.833616617         -0.094178092
H            0.929542252         -0.057971294         -0.084254727
