5
Final structure: -40.4376 hartree
C           -0.000020888          0.000016135          0.000003954
H            0.549465848          0.792785578          0.492245236
H            0.677485563         -0.806485167         -0.251492158
H           -0.771567216         -0.370321563          0.663541115
H           -0.455463306          0.384105016         -0.904298241
