4
Final structure: -26.6040 hartree
B            0.000009491          0.000004946         -0.198476943
H           -0.402579398         -1.037592373          0.218664825
H           -0.172129414          0.997756259          0.424044042
H            0.574699337          0.039831163         -1.238104190
