4
Final structure: -77.3723 hartree
C           -0.599230490         -0.000000008         -0.000012380
C            0.599227596          0.000000013          0.000012381
H           -1.661316978         -0.000000015         -0.000095408
H            1.661319872          0.000000010          0.000095407
