6
Final structure: -78.6299 hartree
C           -0.657390707         -0.052143496         -0.000616614
C            0.657257129          0.052110070          0.000642599
H           -1.227119574          0.003159997         -0.916786025
H           -1.212969186         -0.196705622          0.914457878
H            1.213008705          0.196477790         -0.914429280
H            1.227006217         -0.002915334          0.916833103
