6
Final structure: -78.6299 hartree
C           -0.657359211         -0.052065697         -0.000064772
C            0.657290482          0.052062254          0.000097724
H           -1.227889816          0.003059289         -0.915752984
H           -1.212297022         -0.196408367          0.915489618
H            1.212230609          0.196401255         -0.915455460
H            1.227817542         -0.003065329          0.915787535
