5
Final structure: -40.5294 hartree
C           -0.000025190          0.000036579         -0.000017015
H            0.549809146          0.794389290          0.493419619
H            0.679122804         -0.807490668         -0.251952177
H           -0.772788124         -0.371575483          0.664492042
H           -0.456218634          0.384740282         -0.905942564
