4
Final structure: -114.583 hartree
C           -0.008446580          0.001086424          0.000527448
O            1.171870029         -0.155678007         -0.074429633
H           -0.475695402          0.982046833         -0.185262069
H           -0.687736435         -0.827522476          0.259172203
