4
Final structure: -114.583 hartree
C           -0.008351306          0.001087636          0.000532691
O            1.171797137         -0.155253495         -0.074937212
H           -0.476055727          0.981904906         -0.184965502
H           -0.687398492         -0.827806273          0.259377971
