4
Final structure: -437.713 hartree
C           -0.109883236          0.008715418          0.001175575
S            1.475233793         -0.117337108         -0.015385252
H           -0.655917013          0.273246200          0.902709503
H           -0.709437682         -0.164686805         -0.888420423
