4
Final structure: -56.5966 hartree
N           -0.002579771         -0.000562094          0.277361753
H           -0.517565622         -0.778980620         -0.098847110
H           -0.414678045          0.838775217         -0.094612069
H            0.934823438         -0.059232504         -0.083902575
