4
Final structure: -56.5966 hartree
N           -0.002897555         -0.000626663          0.277585053
H           -0.517187881         -0.779103766         -0.099533317
H           -0.414777817          0.838592657         -0.095045172
H            0.934863253         -0.058862228         -0.083006564
