6
Final structure: -115.806 hartree
C           -0.355393380         -0.041847055         -0.017692991
O            0.983924138         -0.341642399         -0.275472643
H           -0.524089150          1.030209397          0.096774404
H           -0.614010771         -0.527225984          0.918224658
H           -1.020850685         -0.422919474         -0.794102783
H            1.246977008          0.069600653         -1.093535589
