6
Final structure: -115.806 hartree
C           -0.355518749         -0.041427057         -0.017714057
O            0.983672862         -0.342432066         -0.274962788
H           -0.523046913          1.030831947          0.096706969
H           -0.614852678         -0.526831967          0.918017419
H           -1.020865943         -0.421820060         -0.794499147
H            1.247168581          0.067854341         -1.093353340
