4
Final structure: -77.2998 hartree
C           -0.605168308         -0.000000005         -0.000013626
C            0.605168299          0.000000005          0.000013630
H           -1.680806534         -0.000000009         -0.000095975
H            1.680806544          0.000000009          0.000095971
