6
Final structure: -78.5548 hartree
C           -0.664957215         -0.052691034         -0.000154591
C            0.664888034          0.052686374          0.000188201
H           -1.244049718          0.003182349         -0.929550808
H           -1.228497199         -0.199136347          0.928947087
H            1.228428964          0.199130170         -0.928913119
H            1.243979718         -0.003188108          0.929584890
