6
Final structure: -78.5548 hartree
C           -0.664949280         -0.052696329          0.000134994
C            0.664886216          0.052686286         -0.000080050
H           -1.244468273          0.003077049         -0.929024076
H           -1.228202874         -0.199020136          0.929443058
H            1.228078476          0.198968237         -0.929429051
H            1.244448318         -0.003031702          0.929056784
