5
Final structure: -40.4945 hartree
C            0.000009010          0.000024648          0.000025268
H            0.558976118          0.806671406          0.500982995
H            0.689430181         -0.820566889         -0.255982141
H           -0.785089850         -0.376933867          0.675063196
H           -0.463425458          0.390904700         -0.920089414
