5
Final structure: -40.4945 hartree
C           -0.000021877          0.000022100         -0.000003335
H            0.558900758          0.806782345          0.500887344
H            0.689477131         -0.820549776         -0.255767731
H           -0.785083205         -0.376870329          0.675115696
H           -0.463372805          0.390715659         -0.920232069
