4
Final structure: -114.467 hartree
C           -0.001985892          0.000246996          0.000121884
O            1.189885876         -0.157946140         -0.075977625
H           -0.486929930          0.993162431         -0.186549890
H           -0.700978441         -0.835530514          0.262413579
