4
Final structure: -114.467 hartree
C           -0.002039628          0.000253981          0.000116421
O            1.189843798         -0.158058843         -0.075944183
H           -0.486791002          0.993163575         -0.186455065
H           -0.701021555         -0.835425939          0.262290776
