4
Final structure: -437.438 hartree
C           -0.108135814          0.008608228          0.001115031
S            1.494267398         -0.119059473         -0.014941278
H           -0.666331540          0.276992465          0.913308611
H           -0.719804181         -0.166603515         -0.899402961
