4
Final structure: -56.5305 hartree
N           -0.002794605         -0.000661384          0.314998554
H           -0.516872402         -0.779152329         -0.111214752
H           -0.415101369          0.838352520         -0.106950044
H            0.934768376         -0.058538807         -0.096833758
