4
Final structure: -56.5305 hartree
N           -0.002782501         -0.000509120          0.315028698
H           -0.517214988         -0.778871575         -0.110799183
H           -0.414707867          0.838441813         -0.107353438
H            0.934705357         -0.059061118         -0.096876077
