4
Final structure: -343.125 hartree
P           -0.005666307         -0.001356803          0.578825264
H           -0.662915152         -0.997676883         -0.201813353
H           -0.530117787          1.075321080         -0.195603892
H            1.198699241         -0.076287394         -0.181408019
