6
Final structure: -115.679 hartree
C           -0.350603777         -0.043452824         -0.017544194
O            1.006658544         -0.352700078         -0.270491135
H           -0.530373182          1.046107337          0.098098413
H           -0.622230462         -0.532998949          0.932708609
H           -1.034075705         -0.426268021         -0.804401510
H            1.247181743          0.075487673         -1.104175127
