4
Final structure: -26.6174 hartree
B            0.000000113          0.000009194         -0.198480510
H           -0.398434278         -1.027003448          0.214434170
H           -0.170143671          0.987556840          0.417822335
H            0.568577852          0.039437409         -1.227648261
