4
Final structure: -26.6174 hartree
B            0.000006878         -0.000022702         -0.198524305
H           -0.398859272         -1.026532761          0.215148049
H           -0.170046810          0.988052054          0.417065933
H            0.568899220          0.038503404         -1.227561943
