4
Final structure: -77.4027 hartree
C           -0.592028207          0.000000056         -0.000013862
C            0.592034941         -0.000000063          0.000013888
H           -1.644684285         -0.000000026         -0.000093880
H            1.644677551          0.000000034          0.000093854
