6
Final structure: -78.66 hartree
C           -0.651785589         -0.051893230          0.000245103
C            0.651696372          0.051954142         -0.000422276
H           -1.219446387          0.002294496         -0.906472967
H           -1.202190752         -0.195288065          0.907767421
H            1.202877436          0.195283076         -0.907674489
H            1.218641504         -0.002367014          0.906658868
