6
Final structure: -78.66 hartree
C           -0.651801078         -0.051631183          0.000145030
C            0.651731874          0.051626480         -0.000111404
H           -1.218712163          0.002959177         -0.907042740
H           -1.202665720         -0.194796635          0.907562368
H            1.202597446          0.194790590         -0.907528352
H            1.218642225         -0.002965023          0.907076758
