5
Final structure: -40.5494 hartree
C           -0.000012035          0.000058057         -0.000035872
H            0.545423457          0.787103815          0.489913228
H            0.673213051         -0.800764543         -0.250073646
H           -0.766643409         -0.368387655          0.658473928
H           -0.452081062          0.382090325         -0.898277733
