4
Final structure: -114.621 hartree
C           -0.006671279          0.000859674          0.000413690
O            1.164465605         -0.154538911         -0.074777257
H           -0.474074720          0.973153473         -0.182973575
H           -0.683727993         -0.819541463          0.257345090
