4
Final structure: -437.742 hartree
C           -0.108899998          0.008624378          0.001164957
S            1.466708061         -0.116435134         -0.015282978
H           -0.652486309          0.270459347          0.892955814
H           -0.705325892         -0.162710886         -0.878758390
