4
Final structure: -343.354 hartree
P           -0.005328451         -0.001190773          0.569407665
H           -0.649393486         -0.978071038         -0.198034703
H           -0.520080619          1.053659999         -0.192424398
H            1.174802551         -0.074398188         -0.178948564
