6
Final structure: -115.846 hartree
C           -0.352986081         -0.041857257         -0.019108139
O            0.979854321         -0.342108623         -0.274137113
H           -0.522305649          1.021494678          0.095563960
H           -0.615976890         -0.521684680          0.908622024
H           -1.016305812         -0.416358196         -0.788792960
H            1.244277271          0.066689216         -1.087952716
