6
Final structure: -115.714 hartree
C           -0.364976950         -0.040660004         -0.013680548
O            1.000069870         -0.346782338         -0.278041605
H           -0.529390480          1.035139367          0.099252861
H           -0.619450471         -0.528709692          0.924957445
H           -1.029326273         -0.423003792         -0.794444593
H            1.259631463          0.070191597         -1.103848504
