4
Final structure: -26.5534 hartree
B            0.000012624          0.000001136         -0.198429080
H           -0.405968218         -1.046394316          0.222391201
H           -0.174278206          1.006524604          0.428717097
H            0.580233816          0.039868571         -1.246551484
