5
Final structure: -40.4646 hartree
C           -0.000021879          0.000013971          0.000005051
H            0.555986978          0.802138468          0.498083439
H            0.685472626         -0.816048601         -0.254470865
H           -0.780716965         -0.374683704          0.671378844
H           -0.460820759          0.388679864         -0.914996565
