4
Final structure: -114.415 hartree
C           -0.003742674          0.000494134          0.000210715
O            1.191491111         -0.158690418         -0.075158735
H           -0.486496819          0.991977046         -0.186891649
H           -0.701260005         -0.833847989          0.261847617
