4
Final structure: -437.271 hartree
C           -0.110642964          0.008799670          0.001228067
S            1.498188941         -0.119323453         -0.016411553
H           -0.666342875          0.275477388          0.909488492
H           -0.721207242         -0.165015900         -0.894225603
