4
Final structure: -56.5076 hartree
N           -0.002639776         -0.000685623          0.302727121
H           -0.518658432         -0.782723150         -0.107207581
H           -0.417396900          0.841653608         -0.102677660
H            0.938695108         -0.058244835         -0.092841880
