6
Final structure: -115.628 hartree
C           -0.357162359         -0.041324045         -0.016409600
O            1.009277105         -0.354381666         -0.272224510
H           -0.531886575          1.043375090          0.099456335
H           -0.622406750         -0.529675342          0.929869169
H           -1.036196964         -0.424189947         -0.799265036
H            1.254932703          0.072371048         -1.107231303
