4
Final structure: -26.6102 hartree
B           -0.000603112         -0.000378508         -0.198625725
H           -0.355947959         -1.087941126          0.135982335
H           -0.252971001          0.945616927          0.481547133
H            0.609522089          0.142702702         -1.212776010
