4
Final structure: -56.5723 hartree
N            0.013435633         -0.007391118          0.277727743
H           -0.603440638         -0.721462056         -0.082664694
H           -0.331214347          0.882118563         -0.054525877
H            0.921219352         -0.153265390         -0.140537172
