6
Final structure: -115.747 hartree
C           -0.339715951         -0.036594092          0.015695189
O            0.981552110         -0.346823572         -0.375008374
H           -0.495396299          1.041181839          0.121012452
H           -0.501796806         -0.500948161          0.986215812
H           -1.080182109         -0.435015360         -0.684133097
H            1.152096217          0.044374484         -1.229586926
