4
Final structure: -26.5284 hartree
B            0.000007129          0.000004676         -0.198475275
H           -0.404775213         -1.043234699          0.220910887
H           -0.173113750          1.003184718          0.427402467
H            0.577881851          0.040045300         -1.243710345
