4
Final structure: -77.1798 hartree
C           -0.602355598         -0.000000006         -0.000012208
C            0.602355447          0.000000004          0.000012214
H           -1.668657893          0.000000007         -0.000095750
H            1.668658044         -0.000000005          0.000095743
