6
Final structure: -78.4273 hartree
C           -0.662511301         -0.052442859          0.000156752
C            0.662443099          0.052451534         -0.000091326
H           -1.236435471          0.002832104         -0.919585721
H           -1.220298270         -0.197404189          0.920060366
H            1.220173737          0.197308514         -0.920063640
H            1.236420790         -0.002761700          0.919625230
