5
Final structure: -40.4212 hartree
C           -0.000021675          0.000022937         -0.000002777
H            0.553539214          0.798940921          0.496085386
H            0.682778620         -0.812641727         -0.253332671
H           -0.777518061         -0.373225128          0.668574702
H           -0.458878096          0.387002996         -0.911324736
