5
Final structure: -40.4212 hartree
C           -0.000013920          0.000031216         -0.000003135
H            0.553607010          0.798987276          0.496013926
H            0.682763702         -0.812681935         -0.253416375
H           -0.777383957         -0.373225545          0.668690705
H           -0.459072834          0.386988986         -0.911285216
