4
Final structure: -114.352 hartree
C           -0.008845962          0.001152832          0.000566288
O            1.179131161         -0.156202248         -0.075459744
H           -0.479152250          0.985332246         -0.185429362
H           -0.691141336         -0.830350056          0.260330767
