4
Final structure: -114.352 hartree
C           -0.008859116          0.001168234          0.000561212
O            1.179118709         -0.156271705         -0.075545350
H           -0.479117713          0.985373568         -0.185384963
H           -0.691150268         -0.830337325          0.260377049
