4
Final structure: -437.08 hartree
C           -0.112664028          0.008947626          0.001215172
S            1.487263632         -0.118442336         -0.015648866
H           -0.660327028          0.274586790          0.906445805
H           -0.714276714         -0.165154376         -0.891932708
