4
Final structure: -437.08 hartree
C           -0.112640307          0.008957261          0.001197995
S            1.487276629         -0.118508862         -0.015412897
H           -0.660487196          0.274675408          0.906339057
H           -0.714153262         -0.165186102         -0.892044752
