4
Final structure: -56.4716 hartree
N           -0.002777101         -0.000553972          0.283874429
H           -0.518232491         -0.781549831         -0.101194295
H           -0.416460483          0.840690735         -0.097027875
H            0.937470075         -0.058586931         -0.085652259
