4
Final structure: -342.828 hartree
P           -0.005638703         -0.001308163          0.572448690
H           -0.661749630         -0.996126619         -0.199628570
H           -0.529337159          1.073479210         -0.193588846
H            1.196725486         -0.076044427         -0.179231274
