4
Final structure: -77.3344 hartree
C           -0.602631447          0.000000111         -0.000012236
C            0.602631072         -0.000000124          0.000012239
H           -1.669326280         -0.000000073         -0.000095822
H            1.669326655          0.000000086          0.000095819
