6
Final structure: -78.5802 hartree
C           -0.664547233         -0.052633064          0.000511490
C            0.664477917          0.052628375         -0.000477780
H           -1.244671831          0.002494220         -0.919049184
H           -1.227363400         -0.198306863          0.920919117
H            1.227294932          0.198301081         -0.920885163
H            1.244602199         -0.002500344          0.919083180
