4
Final structure: -437.483 hartree
C           -0.112638021          0.008933623          0.001244845
S            1.502742050         -0.119476615         -0.016410980
H           -0.667783429          0.274582801          0.906400992
H           -0.722324738         -0.164102103         -0.891155454
