4
Final structure: -56.5587 hartree
N           -0.002587157         -0.000655019          0.299579301
H           -0.519440672         -0.784390747         -0.106061937
H           -0.418468596          0.843128865         -0.101672163
H            0.940496425         -0.058083099         -0.091845201
