4
Final structure: -343.151 hartree
P           -0.004949873         -0.001034054          0.587227947
H           -0.658390699         -0.995281030         -0.202981396
H           -0.530466900          1.069746078         -0.198414013
H            1.193807467         -0.073430993         -0.185832538
