4
Final structure: -26.6155 hartree
B            0.000014043         -0.000005700         -0.198445148
H           -0.398733548         -1.027668910          0.214777889
H           -0.170911059          0.988415288          0.417741782
H            0.569630580          0.039259316         -1.227946789
