4
Final structure: -77.398 hartree
C           -0.592537073         -0.000000010         -0.000015652
C            0.592537103          0.000000009          0.000015647
H           -1.645480497         -0.000000017         -0.000093187
H            1.645480467          0.000000017          0.000093191
