6
Final structure: -78.6551 hartree
C           -0.652227238         -0.051617911         -0.000251474
C            0.652158037          0.051612914          0.000285165
H           -1.218675366          0.003109819         -0.908351028
H           -1.203747392         -0.194830486          0.907382433
H            1.203678909          0.194824671         -0.907348486
H            1.218605634         -0.003115601          0.908385051
