5
Final structure: -40.5465 hartree
C           -0.000020976          0.000015564          0.000004641
H            0.546161566          0.788003515          0.489273587
H            0.673398176         -0.801623555         -0.249982123
H           -0.766914247         -0.368087109          0.659545116
H           -0.452724518          0.381791583         -0.898841316
