4
Final structure: -114.614 hartree
C           -0.007742826          0.001430137         -0.000017449
O            1.158084599         -0.216206521          0.002657767
H           -0.409935571          0.989557172         -0.243943016
H           -0.740414577         -0.774848020          0.241310647
