4
Final structure: -56.6141 hartree
N            0.021292399          0.000505830          0.269433081
H           -0.471412926         -0.809603085         -0.051587523
H           -0.473799936          0.808021990         -0.054434779
H            0.923920462          0.001075266         -0.163410781
