4
Final structure: -343.351 hartree
P            0.057208977         -0.000007283          0.567029102
H           -0.604226892         -1.018700218         -0.129973922
H           -0.604237829          1.018697197         -0.129946625
H            1.151255740          0.000010305         -0.307108510
