4
Final structure: -26.5666 hartree
B            0.000012006         -0.000002697         -0.198438176
H           -0.404011342         -1.041281701          0.220282826
H           -0.173345323          1.001559444          0.425756740
H            0.577344675          0.039724950         -1.241473655
