4
Final structure: -77.2559 hartree
C           -0.598219929         -0.000000005         -0.000011592
C            0.598219924          0.000000025          0.000011617
H           -1.662064715         -0.000000018         -0.000095650
H            1.662064720         -0.000000001          0.000095625
