5
Final structure: -40.4754 hartree
C           -0.000021218          0.000015512          0.000003060
H            0.552503804          0.797176688          0.495009069
H            0.681241201         -0.810975539         -0.252865262
H           -0.775883488         -0.372370996          0.667191654
H           -0.457940298          0.386254334         -0.909338616
