4
Final structure: -437.305 hartree
C           -0.109487503          0.008702426          0.001181627
S            1.484890461         -0.118214780         -0.015793061
H           -0.660741341          0.273615778          0.903100751
H           -0.714665755         -0.164165718         -0.888409914
