4
Final structure: -343.023 hartree
P           -0.005007284         -0.001104802          0.580503815
H           -0.656317525         -0.990770687         -0.201035642
H           -0.527629719          1.065796262         -0.196065888
H            1.188954522         -0.073920773         -0.183402285
