5
Final structure: -40.5495 hartree
C           -0.000086114         -0.000041972          0.000036614
H            0.544901973          0.787747596          0.489493825
H            0.673753926         -0.800650553         -0.249505001
H           -0.766883228         -0.368486602          0.658518196
H           -0.451786556          0.381531529         -0.898543729
