4
Final structure: -343.354 hartree
P           -0.005413424         -0.001084965          0.569379541
H           -0.649745168         -0.978184860         -0.197751055
H           -0.519704343          1.053922640         -0.192598477
H            1.174862930         -0.074652814         -0.179030009
