6
Final structure: -115.848 hartree
C           -0.354201911         -0.042007980         -0.017746559
O            0.979019810         -0.340720747         -0.277393125
H           -0.522204296          1.021188639          0.097795178
H           -0.613085129         -0.524028021          0.909823847
H           -1.016863119         -0.417086475         -0.787273195
H            1.243891804          0.068829723         -1.091011090
