4
Final structure: -26.6175 hartree
B            0.000000218          0.000009227         -0.198480493
H           -0.398446949         -1.027038184          0.214448120
H           -0.170148690          0.987589598          0.417843588
H            0.568595437          0.039439354         -1.227683482
