4
Final structure: -26.6175 hartree
B            0.000006731          0.000037928         -0.198526194
H           -0.397802498         -1.027196554          0.214465418
H           -0.170797554          0.987486588          0.417948664
H            0.568593337          0.039672033         -1.227760153
