4
Final structure: -77.4029 hartree
C           -0.592128070          0.000000004         -0.000013909
C            0.592127978         -0.000000008          0.000013910
H           -1.644933242         -0.000000009         -0.000093872
H            1.644933335          0.000000012          0.000093870
