4
Final structure: -77.4029 hartree
C           -0.592119674          0.000000097         -0.000013939
C            0.592135261         -0.000000102          0.000013995
H           -1.644915611         -0.000000050         -0.000093894
H            1.644900024          0.000000054          0.000093837
