6
Final structure: -78.6603 hartree
C           -0.651929422         -0.051644462          0.000158204
C            0.651860221          0.051639765         -0.000124579
H           -1.218814382          0.002968466         -0.907081249
H           -1.202727500         -0.194830496          0.907649368
H            1.202659209          0.194824307         -0.907615376
H            1.218744457         -0.002974175          0.907115292
