5
Final structure: -40.5495 hartree
C           -0.000024175          0.000023681         -0.000000033
H            0.545671855          0.787692433          0.488949836
H            0.673133997         -0.801102568         -0.249682678
H           -0.766454968         -0.367909281          0.659159071
H           -0.452426708          0.381395734         -0.898426290
