4
Final structure: -114.622 hartree
C           -0.007463102          0.000999270          0.000442888
O            1.163546239         -0.159660460         -0.073742497
H           -0.468893907          0.975886413         -0.182597524
H           -0.687197618         -0.817292451          0.255905080
