4
Final structure: -56.6182 hartree
N           -0.002395685         -0.000316112          0.269255117
H           -0.516175798         -0.777291589         -0.095214950
H           -0.413833714          0.836690041         -0.092124703
H            0.932405198         -0.059082341         -0.081915464
