4
Final structure: -343.354 hartree
P           -0.005322751         -0.001189624          0.569158256
H           -0.649446744         -0.978148779         -0.197948261
H           -0.520124471          1.053743393         -0.192339054
H            1.174893960         -0.074404989         -0.178870941
