6
Final structure: -115.848 hartree
C           -0.354319054         -0.042147080         -0.017804764
O            0.979588062         -0.339639980         -0.276144153
H           -0.523593120          1.021158946          0.095465535
H           -0.613118218         -0.522749987          0.910510249
H           -1.015846223         -0.419163086         -0.787439552
H            1.243845713          0.068716326         -1.090392260
