4
Final structure: -26.5724 hartree
B            0.000017795          0.000013684         -0.198497609
H           -0.401197677         -1.034333325          0.217346709
H           -0.171569586          0.994644926          0.422019302
H            0.572820823          0.039708597         -1.234873865
