4
Final structure: -77.2728 hartree
C           -0.600676779          0.000000147         -0.000013621
C            0.600676947         -0.000000068          0.000013555
H           -1.660182107          0.000000071         -0.000095903
H            1.660182275         -0.000000010          0.000095798
