5
Final structure: -40.4788 hartree
C           -0.000021070          0.000023541          0.000006264
H            0.550086019          0.793866392          0.492903488
H            0.678426499         -0.807491054         -0.251764256
H           -0.772555809         -0.370844928          0.664387475
H           -0.456029749          0.384552523         -0.905504679
