4
Final structure: -77.3208 hartree
C           -0.597894035         -0.000000059         -0.000011614
C            0.597894033          0.000000040          0.000011600
H           -1.659466377         -0.000000009         -0.000095527
H            1.659466379          0.000000028          0.000095542
