4
Final structure: -26.572 hartree
B           -0.000000458          0.000004078         -0.198454238
H           -0.401340742         -1.034150187          0.217323667
H           -0.171513109          0.994478095          0.422052965
H            0.572810281          0.039653590         -1.234677742
