4
Final structure: -114.444 hartree
C           -0.010716781          0.001409444          0.001039462
O            1.178471853         -0.156437041         -0.074940561
H           -0.479834789          0.978525461         -0.183429824
H           -0.690713045         -0.823205978          0.258871830
