4
Final structure: -56.5262 hartree
N           -0.003292804         -0.000814208          0.284125430
H           -0.517609517         -0.778595863         -0.101187691
H           -0.415158032          0.837835551         -0.096622324
H            0.933419511         -0.059132413         -0.086159829
