6
Final structure: -115.722 hartree
H            1.259514984          0.070277225         -1.102161623
O            0.999461943         -0.345692984         -0.277440306
C           -0.364374005         -0.040911005         -0.014118680
H           -0.530066895          1.034209692          0.098606431
H           -0.619718711         -0.528478811          0.923889568
H           -1.028260155         -0.423228979         -0.794580336
