4
Final structure: -26.4021 hartree
B            0.000009784         -0.000001795         -0.198462021
H           -0.401992400         -1.035997710          0.218032500
H           -0.172155651          0.996315683          0.422885695
H            0.574138275          0.039684190         -1.236327448
