4
Final structure: -76.8557 hartree
C           -0.589621757          0.000000021         -0.000015257
C            0.589621700          0.000000020          0.000015183
H           -1.643605722          0.000000033         -0.000093348
H            1.643605672          0.000000005          0.000093282
