4
Final structure: -113.922 hartree
C           -0.004661954          0.000600041          0.000299930
O            1.159338322         -0.153532592         -0.074152474
H           -0.472992278          0.970488790         -0.182634902
H           -0.681680387         -0.817625303          0.256494663
