4
Final structure: -436.566 hartree
C           -0.110559968          0.008778656          0.001170570
S            1.472849147         -0.117157017         -0.015333949
H           -0.654697433          0.270604141          0.892581358
H           -0.707592854         -0.162283355         -0.878340934
