4
Final structure: -56.2236 hartree
N           -0.002433182         -0.000580228          0.267855214
H           -0.515130125         -0.775745848         -0.095656823
H           -0.413188234          0.835010716         -0.091238558
H            0.930749053         -0.058685238         -0.080963097
