4
Final structure: -342.494 hartree
P           -0.004956799         -0.001181384          0.545983289
H           -0.663297170         -0.999644503         -0.190196355
H           -0.531909746          1.076316803         -0.184509384
H            1.200164065         -0.075489902         -0.171277753
