4
Final structure: -77.2041 hartree
C           -0.595893570         -0.000001958         -0.000012748
C            0.595890916          0.000001751          0.000011727
H           -1.653289879         -0.000000436         -0.000098675
H            1.653287584          0.000002000          0.000098289
