5
Final structure: -40.4376 hartree
C            0.000004658         -0.000004951          0.000015630
H            0.549519779          0.792821721          0.492266834
H            0.677560287         -0.806536932         -0.251513961
H           -0.771558003         -0.370377801          0.663614606
H           -0.455501751          0.384094372         -0.904323036
