4
Final structure: -114.382 hartree
C           -0.008299934          0.001139242          0.000535080
O            1.172842810         -0.155694890         -0.074651116
H           -0.476905862          0.977679519         -0.184092909
H           -0.687780581         -0.822981957          0.258290122
