4
Final structure: -437.102 hartree
C           -0.111838076          0.008862037          0.001206921
S            1.480147953         -0.117809001         -0.015574641
H           -0.657368475          0.271874058          0.897334334
H           -0.710755346         -0.163068503         -0.882843279
