4
Final structure: -56.4885 hartree
N           -0.002535012         -0.000590704          0.276986154
H           -0.517277563         -0.779781228         -0.098777763
H           -0.415639102          0.838940564         -0.094272272
H            0.935353024         -0.058469060         -0.084005079
