4
Final structure: -342.842 hartree
P           -0.004913655         -0.001069230          0.566352471
H           -0.656951377         -0.991328021         -0.196307311
H           -0.527833220          1.066543582         -0.191404308
H            1.189654816         -0.074229075         -0.178652406
