6
Final structure: -115.595 hartree
C           -0.361071454         -0.041438295         -0.014923551
O            0.990891701         -0.343406076         -0.277457789
H           -0.524980883          1.028783798          0.096913735
H           -0.615984320         -0.526636760          0.918868021
H           -1.021493390         -0.421486095         -0.792201098
H            1.248879636          0.070526124         -1.096955933
