4
Coordinates from ORCA-job 02_C2H2 E -77.374847467387
  C       0.000000      0.000000     -0.598585
  C       0.000000      0.000000      0.598585
  H       0.000000      0.000000     -1.664430
  H       0.000000      0.000000      1.664430
4
Coordinates from ORCA-job 02_C2H2 E -77.374909761510
  C      -0.000000      0.000000     -0.600753
  C      -0.000000      0.000000      0.600753
  H       0.000000     -0.000000     -1.666086
  H       0.000000     -0.000000      1.666086
4
Coordinates from ORCA-job 02_C2H2 E -77.374912746459
  C      -0.000000      0.000000     -0.601096
  C      -0.000000     -0.000000      0.601096
  H       0.000000     -0.000000     -1.666538
  H       0.000000      0.000000      1.666538
4
Coordinates from ORCA-job 02_C2H2 E -77.374912784686
  C      -0.000000     -0.000000     -0.601101
  C      -0.000000     -0.000000      0.601101
  H       0.000000      0.000000     -1.666539
  H       0.000000      0.000000      1.666539
