2
Coordinates from ORCA-job 32_S2 E -796.460076101381
  S      -0.000000     -0.000000      0.005070
  S       0.000000      0.000000      1.891814
2
Coordinates from ORCA-job 32_S2 E -796.460230441375
  S       0.000000      0.000000      0.000666
  S       0.000000      0.000000      1.896219
2
Coordinates from ORCA-job 32_S2 E -796.460300053796
  S       0.000000      0.000000     -0.004895
  S       0.000000      0.000000      1.901779
2
Coordinates from ORCA-job 32_S2 E -796.460299980919
  S       0.000000      0.000000     -0.005171
  S       0.000000      0.000000      1.902056
2
Coordinates from ORCA-job 32_S2 E -796.460299012241
  S       0.000000      0.000000     -0.005179
  S       0.000000      0.000000      1.902064
