2
Coordinates from ORCA-job 33_SO E -473.452642512943
  S       0.000000     -0.000000      0.002547
  O      -0.000000      0.000000      1.483667
2
Coordinates from ORCA-job 33_SO E -473.452951435216
  S       0.000000     -0.000000     -0.002687
  O      -0.000000      0.000000      1.488901
2
Coordinates from ORCA-job 33_SO E -473.453051841613
  S       0.000000     -0.000000     -0.007755
  O      -0.000000      0.000000      1.493970
2
Coordinates from ORCA-job 33_SO E -473.453051887719
  S       0.000000     -0.000000     -0.008079
  O      -0.000000      0.000000      1.494294
2
Coordinates from ORCA-job 33_SO E -473.453049294173
  S       0.000000     -0.000000     -0.008090
  O      -0.000000      0.000000      1.494305
