6
Final structure: -78.4563 hartree
C           -0.657164222         -0.052050483          0.000702546
C            0.657106259          0.052061309         -0.000665802
H           -1.228076788          0.002701095         -0.910342548
H           -1.210426396         -0.195923349          0.912900619
H            1.210368421          0.195857711         -0.912861490
H            1.227985310         -0.002662879          0.910368336
