5
Final structure: -40.4406 hartree
C           -0.000019540          0.000008776         -0.000011834
H            0.548856540          0.792190981          0.492594315
H            0.677408738         -0.805972401         -0.251344306
H           -0.771524359         -0.370447469          0.662705822
H           -0.454821378          0.384320113         -0.903944093
