4
Final structure: -26.6083 hartree
B           -0.000490577         -0.000330037         -0.198629000
H           -0.353608290         -1.089588324          0.134661830
H           -0.254458378          0.944319527          0.483682616
H            0.608557261          0.145598828         -1.213587712
