4
Final structure: -77.3317 hartree
C           -0.597031430          0.000000038         -0.000014329
C            0.597031414         -0.000000029          0.000014328
H           -1.660423686         -0.000000017         -0.000095825
H            1.660423702          0.000000009          0.000095826
