5
Final structure: -40.5205 hartree
C            0.000063309          0.000454038         -0.000418940
H            0.517859652          0.826473057          0.482227770
H            0.645364932         -0.875377439         -0.011455747
H           -0.909418795         -0.228021928          0.551101269
H           -0.253969096          0.276572270         -1.021454448
