4
Final structure: -343.155 hartree
P            0.048075059          0.000351561          0.569982405
H           -0.610375344         -1.030623253         -0.139005279
H           -0.607727232          1.032032122         -0.140433032
H            1.170027512         -0.001760431         -0.290544105
