6
Final structure: -115.738 hartree
C           -0.340415736         -0.037202846          0.016177865
O            0.983111317         -0.344520264         -0.375041930
H           -0.497519231          1.040466283          0.122629365
H           -0.500883046         -0.503545527          0.986329573
H           -1.079523383         -0.436652607         -0.684832085
H            1.151787240          0.047630099         -1.231067734
