4
Final structure: -26.5972 hartree
B            0.000011151         -0.000002750         -0.198435387
H           -0.402536064         -1.037559105          0.218845118
H           -0.172703612          0.998016913          0.423510925
H            0.575228540          0.039544937         -1.237792922
