4
Final structure: -77.3147 hartree
C           -0.598113757         -0.000000087         -0.000013254
C            0.598113771          0.000000094          0.000013267
H           -1.659876407          0.000000021         -0.000094916
H            1.659876393         -0.000000028          0.000094903
