6
Final structure: -78.569 hartree
C           -0.660138195         -0.052244131          0.000116147
C            0.660068931          0.052240890         -0.000083156
H           -1.235856604          0.002652824         -0.915269762
H           -1.219747001         -0.197043471          0.915665876
H            1.219680686          0.197036699         -0.915631803
H            1.235784767         -0.002659404          0.915304359
