4
Final structure: -114.492 hartree
C           -0.005320774          0.000702439          0.000319007
O            1.181111191         -0.157288942         -0.074722996
H           -0.481566716          0.982724510         -0.185130013
H           -0.694232088         -0.826205234          0.259541950
