4
Final structure: -437.429 hartree
C           -0.111249446          0.008821329          0.001220332
S            1.489979497         -0.118448157         -0.016094960
H           -0.662352578          0.273038221          0.901315002
H           -0.716381612         -0.163473688         -0.886360971
