4
Final structure: -56.5495 hartree
N           -0.002564413         -0.000653716          0.288769887
H           -0.518009911         -0.781257549         -0.102628737
H           -0.416479715          0.840325868         -0.098082216
H            0.937054039         -0.058414603         -0.088058934
