4
Final structure: -26.6063 hartree
B           -0.000038649          0.000033476         -0.198504499
H           -0.403910144         -1.039809453          0.219993253
H           -0.171903723          1.000419941          0.425381231
H            0.575852532          0.039356031         -1.240742250
