4
Final structure: -343.145 hartree
P           -0.005646573         -0.001275062          0.570402834
H           -0.659320303         -0.992892038         -0.199010989
H           -0.527859206          1.069845801         -0.192920200
H            1.192826077         -0.075678701         -0.178471645
