5
Final structure: -40.5081 hartree
C           -0.000023052          0.000023321          0.000001130
H            0.551046447          0.795270950          0.493743527
H            0.679614716         -0.808922428         -0.252170064
H           -0.773926940         -0.371466524          0.665549006
H           -0.456811171          0.385194680         -0.907123693
