4
Final structure: -114.51 hartree
C           -0.006689505          0.000864924          0.000428934
O            1.174415661         -0.155588288         -0.075116643
H           -0.478254369          0.981702826         -0.184729403
H           -0.689480175         -0.827046689          0.259425060
