4
Final structure: -343.167 hartree
P           -0.005511718         -0.001275423          0.569882489
H           -0.657721251         -0.990093544         -0.198581391
H           -0.526218683          1.066905171         -0.192675150
H            1.189451646         -0.075536204         -0.178625948
