6
Final structure: -115.731 hartree
C           -0.360269088         -0.041629596         -0.015315320
O            0.994509865         -0.343836003         -0.277931989
H           -0.528995037          1.031585744          0.099009236
H           -0.618390339         -0.527731572          0.921547342
H           -1.026321165         -0.422906480         -0.792698137
H            1.256022924          0.070693045         -1.100416077
