4
Final structure: -77.3412 hartree
C           -0.602561366         -0.000000254         -0.000012766
C            0.602561336          0.000000228          0.000012765
H           -1.669087534         -0.000000030         -0.000095774
H            1.669087565          0.000000056          0.000095775
