4
Final structure: -26.5996 hartree
B           -0.000005359          0.000022136         -0.198493460
H           -0.402197572         -1.036918873          0.218417777
H           -0.171464994          0.996987893          0.423972278
H            0.573672472          0.039913326         -1.237770841
