4
Final structure: -77.3208 hartree
C           -0.597913124         -0.000000162         -0.000013507
C            0.597898736         -0.000000058          0.000013609
H           -1.659507053          0.000000061         -0.000094876
H            1.659493793         -0.000000176          0.000094876
