6
Final structure: -78.5755 hartree
C           -0.660403295         -0.052333389          0.000035352
C            0.660048250          0.052277990         -0.000201866
H           -1.235724194          0.002455634         -0.914843169
H           -1.219549941         -0.197056603          0.915134359
H            1.219201436          0.196976795         -0.915299681
H            1.235363959         -0.002497812          0.914680461
