5
Final structure: -40.5076 hartree
C           -0.000009602          0.000057764          0.000024435
H            0.551817370          0.796598836          0.494447387
H            0.680733784         -0.810067909         -0.252470649
H           -0.775037004         -0.372027762          0.666614638
H           -0.457523542          0.385688090         -0.908507328
