4
Final structure: -343.121 hartree
P           -0.005755625         -0.001347055          0.574938923
H           -0.658949910         -0.991616363         -0.200353145
H           -0.526814476          1.068574139         -0.194538005
H            1.191296756         -0.076064236         -0.179986568
