6
Final structure: -115.722 hartree
C           -0.364421047         -0.040971062         -0.014052038
O            0.999444549         -0.345724264         -0.277273132
H           -0.530140381          1.034147325          0.098650044
H           -0.619824228         -0.528532443          0.923943476
H           -1.028244264         -0.423305429         -0.794558447
H            1.259543749          0.070240275         -1.101982207
