5
Final structure: -40.468 hartree
C           -0.000027552          0.000026992          0.000005836
H            0.555456146          0.802005452          0.497614326
H            0.685340606         -0.815498469         -0.254094754
H           -0.780206886         -0.374518759          0.671123553
H           -0.460662312          0.388084783         -0.914649056
