4
Final structure: -114.426 hartree
C           -0.004633585          0.000596255          0.000295269
O            1.189625386         -0.157943124         -0.075950918
H           -0.485556651          0.992020549         -0.186527483
H           -0.699443538         -0.834740907          0.262191081
