4
Final structure: -437.278 hartree
C           -0.110706433          0.008753195          0.001200594
S            1.497258160         -0.118795398         -0.015803104
H           -0.666272708          0.275336413          0.908961728
H           -0.720283158         -0.165356505         -0.894279815
