4
Final structure: -342.994 hartree
P           -0.005686057         -0.001098463          0.592348599
H           -0.658687721         -0.991217181         -0.205700059
H           -0.526613287          1.068296795         -0.200498906
H            1.190987060         -0.075981151         -0.186149633
