6
Final structure: -78.5755 hartree
C           -0.660260975         -0.052286876          0.000153187
C            0.660191716          0.052283579         -0.000120172
H           -1.235593590          0.002493594         -0.914716883
H           -1.219386423         -0.196961424          0.915273092
H            1.219320108          0.196954344         -0.915238951
H            1.235521748         -0.002499811          0.914751388
