5
Final structure: -40.5076 hartree
C           -0.000026257          0.000026021          0.000001850
H            0.551797477          0.796569757          0.494425758
H            0.680720633         -0.810100049         -0.252484674
H           -0.775058805         -0.372051229          0.666591607
H           -0.457533046          0.385655499         -0.908534636
