4
Final structure: -114.503 hartree
C           -0.006778699          0.000876361          0.000433843
O            1.179163319         -0.156228544         -0.075500689
H           -0.480456253          0.983129716         -0.184789250
H           -0.691936755         -0.827844759          0.259864044
