4
Final structure: -56.5579 hartree
N           -0.002567492         -0.000593131          0.279459461
H           -0.520524337         -0.783836936         -0.099586623
H           -0.417411280          0.843775192         -0.095201416
H            0.940503109         -0.059345125         -0.084671422
