4
Final structure: -77.3348 hartree
C           -0.594032225         -0.000000063         -0.000013933
C            0.594032215          0.000000068          0.000013941
H           -1.648600644         -0.000000019         -0.000094192
H            1.648600654          0.000000015          0.000094185
