6
Final structure: -78.592 hartree
C           -0.654070022         -0.051746708          0.000023808
C            0.654000842          0.051742496          0.000009594
H           -1.221663010          0.003193543         -0.909332480
H           -1.205929502         -0.195280806          0.909385328
H            1.205861846          0.195274954         -0.909351149
H            1.221592430         -0.003200074          0.909366559
