4
Final structure: -114.544 hartree
C           -0.008028527          0.001056149          0.000500874
O            1.167987051         -0.155227467         -0.074195925
H           -0.474643029          0.975463026         -0.183913161
H           -0.685323883         -0.821358936          0.257616160
