4
Final structure: -437.389 hartree
C           -0.110607557          0.008772875          0.001184780
S            1.473051595         -0.117137290         -0.015536651
H           -0.654601648          0.271042610          0.894897325
H           -0.707846529         -0.162740489         -0.880466050
