4
Final structure: -56.5786 hartree
N           -0.002457448         -0.000604935          0.272883186
H           -0.515968434         -0.778047694         -0.097342157
H           -0.414760002          0.836903526         -0.092859648
H            0.933185884         -0.058250897         -0.082681382
