6
Final structure: -115.769 hartree
C           -0.356087744         -0.041893710         -0.017076325
O            0.982833687         -0.341201392         -0.276306025
H           -0.523699501          1.023971748          0.096150906
H           -0.613894395         -0.524148229          0.913323474
H           -1.017825107         -0.419931223         -0.789202644
H            1.245230221          0.069377943         -1.092694330
