4
Final structure: -77.2921 hartree
C           -0.595619964          0.000000008         -0.000014464
C            0.595619961         -0.000000007          0.000014465
H           -1.658879354         -0.000000009         -0.000094410
H            1.658879356          0.000000008          0.000094409
