6
Final structure: -78.5453 hartree
C           -0.658071120         -0.052083726         -0.000148356
C            0.658001980          0.052080248          0.000181379
H           -1.231338908          0.003022607         -0.917011574
H           -1.215976003         -0.196777194          0.916421368
H            1.215909550          0.196770140         -0.916387255
H            1.231267085         -0.003028670          0.917046099
