5
Final structure: -40.4904 hartree
C           -0.000019460          0.000016351          0.000001109
H            0.552127399          0.796613547          0.494696811
H            0.680766125         -0.810427005         -0.252698849
H           -0.775363584         -0.372118876          0.666715477
H           -0.457610479          0.386015981         -0.908714644
