4
Final structure: -114.472 hartree
C           -0.008136385          0.001072723          0.000501869
O            1.175337583         -0.156132599         -0.074632775
H           -0.477455169          0.983267703         -0.185450900
H           -0.689754416         -0.828275053          0.259589755
