4
Final structure: -56.5399 hartree
N           -0.002469424         -0.000617758          0.273784634
H           -0.520921816         -0.784968773         -0.097736568
H           -0.418271233          0.844667728         -0.093141257
H            0.941662473         -0.059081197         -0.082906809
