4
Final structure: -343.138 hartree
P           -0.004841859         -0.001092603          0.568271834
H           -0.658215694         -0.993392821         -0.196952044
H           -0.529050994          1.068721220         -0.191899703
H            1.192108541         -0.074235795         -0.179420087
