4
Final structure: -26.5981 hartree
B           -0.000005373          0.000022699         -0.198493725
H           -0.402194024         -1.036846946          0.218406564
H           -0.171455020          0.996942619          0.423923006
H            0.573654434          0.039881623         -1.237708111
