4
Final structure: -77.2532 hartree
C           -0.593732473         -0.000000004         -0.000011286
C            0.593725653          0.000000047          0.000011611
H           -1.653171395         -0.000000016         -0.000094935
H            1.653164376          0.000000068          0.000095206
