6
Final structure: -78.5013 hartree
C           -0.657258824         -0.051531130         -0.000858811
C            0.657240030          0.051522677          0.000937988
H           -1.228575162          0.004514783         -0.915068686
H           -1.215459344         -0.196006893          0.911758532
H            1.215448868          0.195990098         -0.911676897
H            1.228549363         -0.004522087          0.915151516
