4
Final structure: -114.418 hartree
C           -0.006267546          0.000561503          0.000362980
O            1.170253364         -0.155907070         -0.073537899
H           -0.477202079          0.977724717         -0.185354519
H           -0.688918522         -0.823161808          0.258406211
