4
Final structure: -437.389 hartree
C           -0.110373907          0.008734843          0.001212219
S            1.478420041         -0.118798021         -0.016634010
H           -0.656751229          0.272112078          0.898956011
H           -0.711837056         -0.162306622         -0.883565942
