4
Final structure: -77.2551 hartree
C           -0.608745542          0.000000034         -0.000013668
C            0.608731479         -0.000000081          0.000011987
H           -1.679855911         -0.000000200         -0.000097632
H            1.679842011          0.000000129          0.000096361
