6
Final structure: -78.5027 hartree
C           -0.668002526         -0.052979309          0.000003313
C            0.667857844          0.053013933          0.000043349
H           -1.244387609          0.002630199         -0.924135608
H           -1.228454191         -0.198827659          0.924109873
H            1.228301059          0.198869639         -0.924065578
H            1.244252533         -0.002605117          0.924176726
