4
Final structure: -437.297 hartree
C           -0.115059378          0.008959912          0.002085743
S            1.499060079         -0.119531764         -0.012537879
H           -0.666545343          0.276065554          0.911272430
H           -0.718215758         -0.166190737         -0.896616521
