4
Final structure: -343.007 hartree
P           -0.005533750         -0.001246720          0.577511956
H           -0.662001833         -0.996842973         -0.201390517
H           -0.529606910          1.074306250         -0.195394124
H            1.197781303         -0.076036888         -0.180998859
