6
Final structure: -115.63 hartree
C           -0.366821948         -0.040105792         -0.013794672
O            1.004101292         -0.348028639         -0.276141602
H           -0.530141065          1.043152130          0.099251666
H           -0.620375166         -0.532701148          0.931256359
H           -1.032569713         -0.426390188         -0.801480075
H            1.259051595          0.072224570         -1.104614733
