4
Final structure: -26.5409 hartree
B           -0.000000548          0.000016616         -0.198491942
H           -0.411149780         -1.059804296          0.227534486
H           -0.175475326          1.018987134          0.437612698
H            0.586625669          0.040800540         -1.260527507
