4
Final structure: -77.2243 hartree
C           -0.609944700         -0.000000021         -0.000013877
C            0.609945532          0.000000013          0.000013865
H           -1.689221839         -0.000000030         -0.000096493
H            1.689221007          0.000000037          0.000096505
