6
Final structure: -78.4734 hartree
C           -0.668278336         -0.053021341          0.000115176
C            0.668208839          0.053016837         -0.000081618
H           -1.252799259          0.002464796         -0.931983042
H           -1.236459707         -0.199988633          0.932386164
H            1.236391779          0.199982755         -0.932352674
H            1.252729269         -0.002471010          0.932017655
