4
Final structure: -114.376 hartree
C            0.001785463         -0.000257163         -0.000111344
O            1.201516261         -0.159305610         -0.076690017
H           -0.494176914          0.999070957         -0.187407373
H           -0.709133198         -0.839575410          0.264216682
