4
Final structure: -437.243 hartree
C           -0.107403878          0.008566136          0.001141943
S            1.507267489         -0.120722803         -0.015662792
H           -0.672606540          0.278741343          0.917700266
H           -0.727261207         -0.166646971         -0.903100013
