4
Final structure: -56.4784 hartree
N           -0.003031334         -0.000740052          0.329774273
H           -0.516863082         -0.778363279         -0.116450686
H           -0.414342653          0.838094018         -0.111844692
H            0.934237070         -0.058990686         -0.101478895
