4
Final structure: -342.974 hartree
P           -0.005895101         -0.001217705          0.601318564
H           -0.662580591         -0.996199852         -0.209096740
H           -0.528932231          1.074367009         -0.203367393
H            1.197407917         -0.076949452         -0.188854431
