4
Final structure: -76.8506 hartree
C           -0.590090607          0.000000032         -0.000015222
C            0.590090511         -0.000000150          0.000015116
H           -1.644080345         -0.000000191         -0.000093399
H            1.644080248          0.000000078          0.000093265
