6
Final structure: -78.0644 hartree
C           -0.654958160         -0.051829193         -0.000251892
C            0.654889454          0.051822931          0.000285122
H           -1.224577440          0.002764078         -0.909488575
H           -1.209638420         -0.195420697          0.908521584
H            1.209571042          0.195414182         -0.908487554
H            1.224507513         -0.002772995          0.909522454
