5
Final structure: -40.2135 hartree
C           -0.000019886          0.000020094          0.000000315
H            0.548988975          0.792190973          0.491900664
H            0.676985382         -0.805865936         -0.251242610
H           -0.771002809         -0.370040308          0.662987521
H           -0.455051229          0.383795657         -0.903644708
