4
Final structure: -436.559 hartree
C           -0.110561343          0.008779128          0.001171483
S            1.473964785         -0.117243829         -0.015341539
H           -0.655241848          0.270743071          0.892974223
H           -0.708156382         -0.162334352         -0.878722795
