4
Final structure: -26.5434 hartree
B            0.000004019          0.000016574         -0.198489226
H           -0.409615222         -1.055826711          0.225957065
H           -0.174935939          1.015203401          0.435146309
H            0.584547158          0.040606730         -1.256486413
