4
Final structure: -77.2294 hartree
C           -0.609869986         -0.000000017         -0.000012235
C            0.609870163          0.000000004          0.000012237
H           -1.688040406         -0.000000051         -0.000096983
H            1.688040229          0.000000064          0.000096981
