6
Final structure: -78.4804 hartree
C           -0.669136118         -0.053110827          0.000158445
C            0.669067012          0.053106254         -0.000124915
H           -1.252556509          0.002342667         -0.929448996
H           -1.236101214         -0.199893482          0.930017626
H            1.236033112          0.199887562         -0.929983602
H            1.252486299         -0.002348768          0.929483103
