5
Final structure: -40.4492 hartree
C           -0.000023215          0.000025088         -0.000001054
H            0.559571466          0.807740226          0.501455897
H            0.690291647         -0.821517490         -0.256067832
H           -0.786002165         -0.377306876          0.675930246
H           -0.463937732          0.391159050         -0.921317353
