4
Final structure: -114.389 hartree
C           -0.006847558          0.000888210          0.000438227
O            1.196548401         -0.158740583         -0.076250560
H           -0.487083837          0.999902224         -0.188304800
H           -0.702625394         -0.842117078          0.264125082
