4
Final structure: -56.4952 hartree
N           -0.002852706         -0.000578999          0.300645636
H           -0.522834107         -0.786827746         -0.106704860
H           -0.418711295          0.847356455         -0.102547867
H            0.944398108         -0.059949710         -0.091392909
