4
Final structure: -342.976 hartree
P           -0.005989214         -0.001178962          0.598331956
H           -0.663414751         -0.997525107         -0.208194505
H           -0.529604543          1.075754450         -0.202545720
H            1.199008503         -0.077050381         -0.187591731
