6
Final structure: -115.601 hartree
C           -0.363357354         -0.040511080         -0.015028317
O            1.010293438         -0.352978872         -0.271868437
H           -0.531952734          1.051401043          0.099842084
H           -0.623522013         -0.534675650          0.937298520
H           -1.038332882         -0.429350016         -0.806918037
H            1.263428706          0.072289713         -1.109130758
