4
Final structure: -77.3205 hartree
C           -0.597777525         -0.000000001         -0.000013200
C            0.597777551         -0.000000017          0.000013184
H           -1.659264896          0.000000046         -0.000094865
H            1.659264870         -0.000000027          0.000094881
