6
Final structure: -78.575 hartree
C           -0.660077049         -0.052268680          0.000134603
C            0.660007764          0.052265373         -0.000101652
H           -1.235432601          0.002488049         -0.914680408
H           -1.219280721         -0.196920777          0.915168456
H            1.219214583          0.196913831         -0.915134372
H            1.235360607         -0.002494391          0.914715033
