5
Final structure: -40.5075 hartree
C           -0.000026356          0.000026115          0.000001978
H            0.551768952          0.796532719          0.494394422
H            0.680686643         -0.810058797         -0.252466999
H           -0.775017964         -0.372028950          0.666560427
H           -0.457511274          0.385628912         -0.908489924
