4
Final structure: -437.436 hartree
C           -0.111323070          0.008795240          0.001208620
S            1.488987487         -0.117993425         -0.015668845
H           -0.662137328          0.272963319          0.900606758
H           -0.715531229         -0.163827429         -0.886067130
