4
Final structure: -343.121 hartree
P           -0.005679021         -0.001242904          0.575307951
H           -0.658870500         -0.991345179         -0.200477731
H           -0.526651300          1.068571747         -0.194656826
H            1.191200816         -0.075983664         -0.180173394
