5
Final structure: -40.5050 hartree
C           -0.000020243          0.000014723          0.000003491
H            0.551542276          0.795749863          0.494136319
H            0.680026412         -0.809537894         -0.252441598
H           -0.774504171         -0.371715329          0.666011899
H           -0.457144272          0.385588636         -0.907710206
