4
Final structure: -114.502 hartree
C           -0.008018617          0.001059533          0.000491688
O            1.175311532         -0.156257019         -0.074522985
H           -0.477463553          0.982714129         -0.185397080
H           -0.689837751         -0.827583870          0.259436326
