4
Final structure: -437.483 hartree
C           -0.110204642          0.008742166          0.001183168
S            1.480892409         -0.117754957         -0.015642251
H           -0.658541303          0.272785565          0.900661132
H           -0.712150603         -0.163835069         -0.886122646
