4
Final structure: -56.5582 hartree
N           -0.002464348         -0.000615497          0.272814009
H           -0.521140582         -0.785559849         -0.097424492
H           -0.418678111          0.845148273         -0.092830232
H            0.942283041         -0.058972927         -0.082559286
