4
Final structure: -343.164 hartree
P           -0.004784818         -0.001029019          0.570309355
H           -0.656865484         -0.991836676         -0.197401286
H           -0.528376290          1.066712589         -0.192647224
H            1.190026587         -0.073846894         -0.180260844
