6
Final structure: -115.724 hartree
C           -0.362903452         -0.041259586         -0.013993685
O            0.994380869         -0.344229731         -0.279051401
H           -0.527618718          1.032811925          0.099465995
H           -0.618076669         -0.528534398          0.923424916
H           -1.026785769         -0.423074585         -0.793175179
H            1.257560898          0.070461513         -1.102475591
