4
Final structure: -77.3367 hartree
C           -0.596743053          0.000000015         -0.000014451
C            0.596743143         -0.000000020          0.000014449
H           -1.660346222         -0.000000022         -0.000096074
H            1.660346133          0.000000027          0.000096076
