6
Final structure: -78.5973 hartree
C           -0.654051283         -0.080506150          0.051032837
C            0.653982057          0.080501011         -0.050998930
H           -1.295310068         -0.081666375         -0.821477690
H           -1.135573325         -0.217459672          1.011128386
H            1.135504198          0.217454483         -1.011094491
H            1.295241005          0.081660109          0.821511549
