5
Final structure: -40.5236 hartree
C            0.000052530          0.000488645         -0.000443951
H            0.517639399          0.826132617          0.482252324
H            0.645361235         -0.874908029         -0.012059727
H           -0.908809047         -0.228459484          0.551198521
H           -0.254344115          0.276846250         -1.020947262
