4
Final structure: -343.159 hartree
P            0.050438626          0.000791499          0.569244937
H           -0.614212321         -1.028367660         -0.135029129
H           -0.604430981          1.033647892         -0.138756870
H            1.168204672         -0.006071732         -0.295458923
