4
Final structure: -77.2614 hartree
C           -0.597858902         -0.000000084         -0.000013456
C            0.597858967          0.000000078          0.000013472
H           -1.661516426         -0.000000059         -0.000094997
H            1.661516360          0.000000065          0.000094981
