5
Final structure: -40.4785 hartree
C           -0.000025464          0.000024771          0.000003864
H            0.552046303          0.796951037          0.494577591
H            0.681026091         -0.810454878         -0.252561260
H           -0.775382099         -0.372183117          0.666915738
H           -0.457764829          0.385762186         -0.908936029
