4
Final structure: -114.424 hartree
C           -0.004921204          0.000631883          0.000317490
O            1.176784885         -0.155922874         -0.075329509
H           -0.480094532          0.983934556         -0.185065646
H           -0.691777536         -0.828710791          0.260085613
