4
Final structure: -437.311 hartree
C           -0.109495875          0.008679071          0.001176062
S            1.483918887         -0.117938381         -0.015555266
H           -0.660427665          0.273458799          0.902623591
H           -0.713999484         -0.164261784         -0.888164984
