4
Final structure: -56.5189 hartree
N           -0.002603097         -0.000631124          0.286642764
H           -0.517661107         -0.779674546         -0.101961020
H           -0.415238717          0.839244996         -0.097474822
H            0.935502921         -0.058939327         -0.087206922
