4
Final structure: -343.027 hartree
P           -0.005507499         -0.001184802          0.579171879
H           -0.657406614         -0.989814563         -0.201391514
H           -0.526118517          1.066460276         -0.195879042
H            1.189032625         -0.075460911         -0.181901322
