4
Final structure: -26.5949 hartree
B           -0.000002784          0.000020648         -0.198488576
H           -0.401809671         -1.035848728          0.218015201
H           -0.171391880          0.996012350          0.423251785
H            0.573204351          0.039815725         -1.236650675
