5
Final structure: -40.5082 hartree
C           -0.000023030          0.000023284          0.000001088
H            0.551059389          0.795289488          0.493755829
H            0.679630720         -0.808941695         -0.252176292
H           -0.773945472         -0.371475511          0.665564426
H           -0.456821606          0.385204432         -0.907145145
