4
Final structure: -343.167 hartree
P           -0.005503029         -0.001274821          0.569540752
H           -0.657778095         -0.990171412         -0.198463264
H           -0.526262781          1.066990900         -0.192555905
H            1.189543899         -0.075544668         -0.178521582
