4
Final structure: -77.3407 hartree
C           -0.602393544          0.000000277         -0.000012323
C            0.602393484         -0.000000297          0.000012294
H           -1.668771058          0.000000007         -0.000095920
H            1.668771118          0.000000012          0.000095949
