6
Final structure: -78.5867 hartree
C           -0.664581706         -0.052671365          0.000527004
C            0.664512366          0.052666864         -0.000493404
H           -1.244343303          0.002244240         -0.918494706
H           -1.227012415         -0.198132400          0.920450324
H            1.226944310          0.198126171         -0.920416355
H            1.244273332         -0.002250105          0.918528796
