4
Final structure: -114.536 hartree
C           -0.006041081          0.000777959          0.000389687
O            1.190871679         -0.157907320         -0.076301665
H           -0.485982452          0.989174464         -0.185637713
H           -0.698856533         -0.832112330          0.261557640
