4
Final structure: -437.49 hartree
C           -0.112809651          0.008898401          0.001223941
S            1.501800115         -0.118865713         -0.015780823
H           -0.667682409          0.274537256          0.905634485
H           -0.721312193         -0.164632238         -0.890998200
