4
Final structure: -343.155 hartree
P           -0.005866934         -0.001180061          0.585364473
H           -0.660633049         -0.993470280         -0.203841012
H           -0.527534164          1.071198764         -0.198223201
H            1.194034142         -0.076548423         -0.183300260
