6
Final structure: -115.745 hartree
C           -0.367034171         -0.040057554         -0.013871570
O            1.012797785         -0.352034449         -0.274622554
H           -0.535118036          1.041550060          0.100214455
H           -0.623223853         -0.530418681          0.929673567
H           -1.036467646         -0.424879261         -0.798025710
H            1.265603080          0.072015023         -1.109173132
