4
Final structure: -26.3913 hartree
B            0.000009830         -0.000001830         -0.198461986
H           -0.405450579         -1.044910046          0.221615554
H           -0.173636556          1.004886763          0.428230982
H            0.579077433          0.040025534         -1.245255943
