6
Final structure: -78.0437 hartree
C           -0.659767498         -0.052205159         -0.000253848
C            0.659699166          0.052202286          0.000287498
H           -1.232265213          0.002934789         -0.916580310
H           -1.217209854         -0.196798108          0.915605944
H            1.217144200          0.196791740         -0.915571271
H            1.232194399         -0.002938878          0.916615530
