4
Final structure: -56.2056 hartree
N           -0.002487364         -0.000593321          0.273393135
H           -0.516941572         -0.778495163         -0.097527225
H           -0.414635713          0.837976226         -0.093092433
H            0.934060312         -0.058888232         -0.082778043
