4
Final structure: -342.478 hartree
P           -0.005001289         -0.001191932          0.550653015
H           -0.666921840         -1.005112728         -0.191799276
H           -0.534816102          1.082205447         -0.186081468
H            1.206734328         -0.075901002         -0.172774199
