6
Final structure: -115.062 hartree
C           -0.359979835         -0.042322317         -0.014672607
O            0.987133173         -0.337615550         -0.283726363
H           -0.524482930          1.031965591          0.097567697
H           -0.614224553         -0.530549490          0.922662650
H           -1.021998980         -0.423830173         -0.795657527
H            1.250113782          0.068521610         -1.091980941
