6
Final structure: -78.6551 hartree
C           -0.652333431         -0.051556460          0.000101962
C            0.652061173          0.051637548          0.000051494
H           -1.219198394          0.003307304         -0.907721989
H           -1.203434347         -0.194879980          0.907968543
H            1.203155310          0.194952722         -0.907819434
H            1.218929842         -0.003213961          0.907877575
