4
Final structure: -437.737 hartree
C           -0.109396324          0.008616992          0.001025533
S            1.467463113         -0.117564111         -0.015789384
H           -0.652321343          0.270752370          0.893658613
H           -0.705958470         -0.162300792         -0.879414213
