4
Final structure: -56.6141 hartree
N           -0.002498486         -0.000622204          0.270258201
H           -0.515768814         -0.777904627         -0.096447980
H           -0.414818126          0.836576994         -0.091930840
H            0.932841269         -0.058123883         -0.081764504
