4
Final structure: -343.351 hartree
P           -0.004938727         -0.001180321          0.570072773
H           -0.648998072         -0.979622340         -0.197386223
H           -0.521600294          1.053672293         -0.192499717
H            1.175485873         -0.073228448         -0.179941006
