6
Final structure: -115.839 hartree
C           -0.354978943         -0.042043543         -0.017444183
O            0.980237470         -0.340265228         -0.276436196
H           -0.523403380          1.021881796          0.095982944
H           -0.613086936         -0.523152566          0.911434314
H           -1.016615185         -0.419303139         -0.787564370
H            1.244006863          0.069050682         -1.091761751
