4
Final structure: -26.5477 hartree
B            0.000010566         -0.000010246         -0.198480372
H           -0.406033662         -1.046458560          0.222215906
H           -0.173713151          1.006300283          0.429263319
H            0.579743399          0.040111938         -1.246909388
