6
Final structure: -78.459 hartree
C           -0.668333794         -0.052994234         -0.000113802
C            0.668278675          0.053009993          0.000160618
H           -1.243264066          0.002847230         -0.924452041
H           -1.227642726         -0.198819222          0.923994247
H            1.227588615          0.198833779         -0.923947156
H            1.243208677         -0.002833084          0.924498905
