5
Final structure: -40.4397 hartree
C           -0.000037911          0.000011674          0.000129664
H            0.555726462          0.802147693          0.498124710
H            0.685473030         -0.815933628         -0.254056638
H           -0.780682693         -0.374621581          0.671355219
H           -0.460658677          0.388439091         -0.914886960
