4
Final structure: -56.4824 hartree
N           -0.002406664         -0.000579926          0.288225815
H           -0.520340762         -0.783784047         -0.102515097
H           -0.417113080          0.843878164         -0.098104974
H            0.940805605         -0.059383588         -0.087587689
