4
Final structure: -342.909 hartree
P           -0.005526601         -0.001300556          0.574163395
H           -0.661814350         -0.996624653         -0.200100474
H           -0.529894573          1.073636962         -0.194215892
H            1.197018284         -0.075773550         -0.180308050
