6
Final structure: -115.575 hartree
C           -0.366307294         -0.040255052         -0.014056765
O            1.003135493         -0.347618187         -0.276196997
H           -0.529312180          1.042195581          0.098826177
H           -0.619922272         -0.532576183          0.930291448
H           -1.031183692         -0.426173533         -0.801467375
H            1.256624170          0.072751157         -1.103366612
