4
Final structure: -26.5974 hartree
B            0.000011156         -0.000002765         -0.198435251
H           -0.402531550         -1.037545623          0.218840199
H           -0.172703519          0.998005235          0.423501061
H            0.575223928          0.039543146         -1.237778275
