6
Final structure: -78.5699 hartree
C           -0.660521247         -0.052280028          0.000150059
C            0.660451666          0.052276714         -0.000117080
H           -1.235992688          0.002669962         -0.915239733
H           -1.219782255         -0.197094716          0.915761171
H            1.219716162          0.197087816         -0.915727298
H            1.235920946         -0.002676343          0.915274541
