5
Final structure: -40.5044 hartree
C           -0.000021465          0.000013589          0.000005883
H            0.552307062          0.796857571          0.494786833
H            0.680970945         -0.810638687         -0.252799452
H           -0.775548564         -0.372230764          0.666953867
H           -0.457807977          0.386098290         -0.908947227
