4
Final structure: -343.118 hartree
P           -0.004838371         -0.000985948          0.575681405
H           -0.657647000         -0.993371208         -0.199107024
H           -0.529265304          1.068134470         -0.194560292
H            1.191750670         -0.073777313         -0.182014090
