4
Final structure: -26.6102 hartree
B           -0.000592520         -0.000380639         -0.198619132
H           -0.355952392         -1.087957626          0.135888021
H           -0.252962594          0.945552046          0.481625666
H            0.609507522          0.142786213         -1.212766820
