4
Final structure: -77.3365 hartree
C           -0.596660405         -0.000000060         -0.000014346
C            0.596660430          0.000000047          0.000014350
H           -1.660190594         -0.000000044         -0.000096011
H            1.660190569          0.000000056          0.000096007
