6
Final structure: -78.597 hartree
C           -0.653930060         -0.080560255          0.051018509
C            0.653860875          0.080555220         -0.050984649
H           -1.295224682         -0.081739115         -0.821395933
H           -1.135496107         -0.217596690          1.011015886
H            1.135427100          0.217591581         -1.010981969
H            1.295155459          0.081732665          0.821429818
