5
Final structure: -40.5235 hartree
C            0.000053219          0.000488667         -0.000444703
H            0.517616430          0.826095872          0.482232698
H            0.645335451         -0.874868589         -0.012059492
H           -0.908768356         -0.228448175          0.551172889
H           -0.254336742          0.276832224         -1.020901487
