4
Final structure: -114.521 hartree
C           -0.006782754          0.000594437          0.000871003
O            1.174508899         -0.101926661         -0.147651608
H           -0.529855785          0.965818163         -0.128661669
H           -0.637878748         -0.864553166          0.275450221
