4
Final structure: -437.485 hartree
C           -0.109706335         -0.000014387          0.000023261
S            1.485079252          0.000113667         -0.000166893
H           -0.687584362          0.265957400          0.882019088
H           -0.687792723         -0.266118974         -0.881796053
