4
Final structure: -56.5709 hartree
N            0.013463723         -0.008205857          0.281045074
H           -0.603449233         -0.719002314         -0.085909566
H           -0.329389659          0.881162778         -0.053665398
H            0.919375169         -0.153954607         -0.141470110
