4
Final structure: -343.159 hartree
P            0.050456396          0.000959530          0.569423181
H           -0.614076681         -1.028395892         -0.134854781
H           -0.604548775          1.033512041         -0.139075521
H            1.168169054         -0.006075680         -0.295492880
