6
Final structure: -115.746 hartree
C           -0.338272406         -0.037092537          0.014897395
O            0.982662727         -0.345733276         -0.374340338
H           -0.497324705          1.040288552          0.121771105
H           -0.501680014         -0.501847324          0.985153230
H           -1.079729969         -0.435411822         -0.684319903
H            1.150901528          0.045971544         -1.228966433
