4
Final structure: -56.5227 hartree
N           -0.002565363         -0.000605147          0.280218932
H           -0.522508256         -0.786322931         -0.099891017
H           -0.418586621          0.846745090         -0.095409041
H            0.943660240         -0.059817012         -0.084918873
