4
Final structure: -343.123 hartree
P           -0.005589730         -0.001362868          0.573857289
H           -0.663259465         -0.998260362         -0.200148136
H           -0.530484890          1.075869896         -0.193905637
H            1.199334080         -0.076246667         -0.179803516
