6
Final structure: -115.658 hartree
C           -0.363209649         -0.041403262         -0.014095867
O            0.998522565         -0.345270417         -0.277815950
H           -0.527585860          1.041544681          0.099633084
H           -0.619467364         -0.533126703          0.930734368
H           -1.029826268         -0.427398704         -0.801087260
H            1.258123735          0.071829544         -1.103173320
