4
Final structure: -26.5688 hartree
B           -0.000001905          0.000021580         -0.198486303
H           -0.403707514         -1.040711263          0.219972824
H           -0.172259250          1.000706852          0.426123327
H            0.575968685          0.039982825         -1.241482114
