4
Final structure: -77.2617 hartree
C           -0.597967127          0.000000049         -0.000013727
C            0.597967136         -0.000000062          0.000013726
H           -1.661729270         -0.000000030         -0.000094915
H            1.661729261          0.000000043          0.000094917
