6
Final structure: -78.5193 hartree
C           -0.659304460         -0.052183232          0.000035503
C            0.659235406          0.052179909         -0.000002569
H           -1.234172172          0.002857987         -0.916891650
H           -1.218276085         -0.197009332          0.917005238
H            1.218209844          0.197002233         -0.916971075
H            1.234100051         -0.002864160          0.916926215
