4
Final structure: -114.425 hartree
C           -0.005596429          0.000721582          0.000360664
O            1.176572633         -0.155903088         -0.075304782
H           -0.479586284          0.984364934         -0.185220618
H           -0.691398307         -0.829250655          0.260172685
