4
Final structure: -26.6042 hartree
B           -0.000011147          0.000010509         -0.198461047
H           -0.403911111         -1.040489958          0.220218466
H           -0.172881673          1.001048615          0.425325259
H            0.576803947          0.039430828         -1.240954943
