4
Final structure: -77.3282 hartree
C           -0.598583147          0.000000020         -0.000014038
C            0.598588385         -0.000000006          0.000014034
H           -1.664441096         -0.000000016         -0.000094912
H            1.664435858          0.000000002          0.000094916
