6
Final structure: -78.5841 hartree
C           -0.660880719         -0.052042050         -0.000518813
C            0.660811459          0.052037749          0.000552241
H           -1.234160473          0.004039688         -0.920739055
H           -1.219846088         -0.197224842          0.918756738
H            1.219778335          0.197219347         -0.918722591
H            1.234090068         -0.004046487          0.920773141
