5
Final structure: -40.5138 hartree
C           -0.000064057          0.000020852         -0.000014174
H            0.553892970          0.799030300          0.495398794
H            0.682756277         -0.812442610         -0.253714641
H           -0.776869938         -0.373272473          0.669261253
H           -0.459815249          0.386763929         -0.910931328
