4
Final structure: -114.509 hartree
C           -0.008688035          0.001167027          0.000566163
O            1.180073635         -0.157005447         -0.074934948
H           -0.479078652          0.986448734         -0.186238578
H           -0.692315336         -0.830677540          0.260615311
