4
Final structure: -437.467 hartree
C           -0.111707013          0.008930053          0.001199794
S            1.485359395         -0.118479984         -0.016154570
H           -0.659568810          0.273530320          0.905435913
H           -0.714087711         -0.164042684         -0.890401734
