4
Final structure: -56.5627 hartree
N           -0.002013424         -0.001025922          0.281742815
H           -0.521837983         -0.784635903         -0.100579028
H           -0.417952412          0.845251673         -0.093916598
H            0.941803819         -0.059589848         -0.087247189
