6
Final structure: -115.73 hartree
C           -0.363402325         -0.041285362         -0.013690119
O            0.999643168         -0.347047081         -0.277037073
H           -0.526683527          1.037540752          0.098676465
H           -0.619974523         -0.530259474          0.927500411
H           -1.027781749         -0.424805686         -0.797699235
H            1.254756116          0.072031989         -1.103555394
