5
Final structure: -40.5044 hartree
C           -0.000004221         -0.000014721          0.000035276
H            0.552316112          0.796802970          0.494859931
H            0.681002905         -0.810647642         -0.252778594
H           -0.775539025         -0.372282956          0.666959357
H           -0.457775708          0.386096897         -0.908914476
