4
Final structure: -343.118 hartree
P           -0.004774987         -0.001011305          0.575666037
H           -0.657486354         -0.993451899         -0.199131118
H           -0.529235921          1.068055222         -0.194629364
H            1.191859414         -0.073768311         -0.181966378
