6
Final structure: -115.714 hartree
C           -0.364965786         -0.040662408         -0.013677389
O            1.000086919         -0.346817139         -0.277975116
H           -0.529368804          1.035144604          0.099203044
H           -0.619474223         -0.528669355          0.924972470
H           -1.029291192         -0.423029716         -0.794448658
H            1.259659623          0.070041084         -1.103837129
