4
Final structure: -26.5981 hartree
B           -0.000266902         -0.000196128         -0.198560206
H           -0.354820427         -1.099322713          0.138462565
H           -0.260373825          0.953020004          0.487928368
H            0.615461170          0.146498831         -1.221702993
