6
Final structure: -78.5694 hartree
C           -0.658956405         -0.081751088          0.051942846
C            0.658887376          0.081745014         -0.051908840
H           -1.305626745         -0.082063203         -0.827258324
H           -1.142590278         -0.222152831          1.020185478
H            1.142520679          0.222147540         -1.020151433
H            1.305557957          0.082057972          0.827291934
