5
Final structure: -40.5049 hartree
C            0.000043508          0.000409635         -0.000351621
H            0.521281451          0.832015731          0.487420483
H            0.650066747         -0.882041230         -0.011612848
H           -0.917134980         -0.230187226          0.553617394
H           -0.254356725          0.279903089         -1.029073504
