4
Final structure: -437.457 hartree
C           -0.110901209          0.000013100          0.000029780
S            1.493286976          0.000160576          0.000008203
H           -0.691266571          0.270156384          0.890536647
H           -0.691123323         -0.270392353         -0.890495226
