4
Final structure: -56.5516 hartree
N            0.013675375         -0.008935335          0.285668091
H           -0.607140637         -0.721159828         -0.088924042
H           -0.329601309          0.885831857         -0.052929546
H            0.923066570         -0.155736695         -0.143814502
