4
Final structure: -343.142 hartree
P           -0.004324972         -0.000023233          0.576863068
H           -0.660372249         -0.998670300         -0.197628955
H           -0.532652847          1.072809866         -0.195947438
H            1.197350062         -0.074116333         -0.183286675
