6
Final structure: -115.707 hartree
C           -0.341109427         -0.036555086          0.016293778
O            0.985848255         -0.346382769         -0.374860759
H           -0.497878519          1.049141705          0.122267355
H           -0.500192968         -0.505841528          0.993880911
H           -1.085039081         -0.440513153         -0.689297626
H            1.154928901          0.046325970         -1.234088605
