4
Final structure: -77.1758 hartree
C           -0.602425529          0.000000001         -0.000013411
C            0.602425756         -0.000000010          0.000013414
H           -1.670173682          0.000000002         -0.000095509
H            1.670173455          0.000000007          0.000095506
