6
Final structure: -78.4218 hartree
C           -0.661643670         -0.052423286         -0.000014282
C            0.661574386          0.052419048          0.000047687
H           -1.236865807          0.002913722         -0.922010299
H           -1.221039936         -0.197721976          0.921932305
H            1.220972249          0.197716622         -0.921898470
H            1.236795362         -0.002920724          0.922044719
