6
Final structure: -78.4218 hartree
C           -0.661617955         -0.052470597          0.000241994
C            0.661577100          0.052455490         -0.000228872
H           -1.237331463          0.002827436         -0.921484317
H           -1.220648862         -0.197780078          0.922404540
H            1.220626206          0.197832220         -0.922366700
H            1.237187558         -0.002881066          0.921535015
