5
Final structure: -40.4183 hartree
C           -0.000024491          0.000028277         -0.000019642
H            0.554927361          0.800918735          0.497099253
H            0.684357920         -0.814699497         -0.253770237
H           -0.779366732         -0.373911356          0.670298070
H           -0.459994057          0.387763840         -0.913607539
