4
Final structure: -114.34 hartree
C           -0.002263685          0.000280593          0.000145442
O            1.182714833         -0.156710701         -0.075662515
H           -0.484362115          0.984672608         -0.184812912
H           -0.696097421         -0.828309726          0.260337934
