4
Final structure: -114.34 hartree
C           -0.002267223          0.000281026          0.000143640
O            1.182718720         -0.156670716         -0.075664211
H           -0.484400337          0.984664442         -0.184836211
H           -0.696059548         -0.828341979          0.260364730
