4
Final structure: -437.074 hartree
C           -0.108880008          0.008644967          0.001170650
S            1.488858983         -0.118528784         -0.015495332
H           -0.663140475          0.274709244          0.906487334
H           -0.716842637         -0.164887721         -0.892083250
