4
Final structure: -437.074 hartree
C           -0.108869622          0.008643410          0.001175768
S            1.488870151         -0.118566574         -0.015673948
H           -0.663019269          0.274815762          0.906523860
H           -0.716985398         -0.164954893         -0.891946277
