4
Final structure: -56.4572 hartree
N           -0.002841876         -0.000685213          0.308926657
H           -0.514132353         -0.774124632         -0.109437833
H           -0.412105058          0.833519499         -0.104912591
H            0.929079287         -0.058709654         -0.094576233
