4
Final structure: -56.4572 hartree
N           -0.002556482         -0.000780002          0.308854437
H           -0.514536878         -0.773941905         -0.109195136
H           -0.411939847          0.833731797         -0.104335093
H            0.929033207         -0.059009890         -0.095324208
