6
Final structure: -115.545 hartree
C           -0.349512178         -0.043326085         -0.018577724
O            0.998023457         -0.349203825         -0.271014771
H           -0.528006105          1.037779693          0.096150799
H           -0.618813140         -0.529371506          0.924383651
H           -1.027442334         -0.423194209         -0.799549125
H            1.242307460          0.073491070         -1.097197774
