4
Final structure: -26.5666 hartree
B           -0.000000690         -0.000021796         -0.198433356
H           -0.401651148         -1.035062389          0.217759844
H           -0.172125814          0.995484053          0.422209019
H            0.573725025          0.039520311         -1.235322160
