4
Final structure: -77.2571 hartree
C           -0.601344427         -0.000000162         -0.000013702
C            0.601342527         -0.000000014          0.000013875
H           -1.660965975         -0.000000131         -0.000096725
H            1.660963902         -0.000000161          0.000096961
