6
Final structure: -78.5053 hartree
C           -0.661485508         -0.052456564         -0.000105424
C            0.661428907          0.052457537          0.000129448
H           -1.231502388          0.002407638         -0.915049507
H           -1.216048752         -0.196506450          0.914636083
H            1.215989700          0.196506047         -0.914612653
H            1.231448122         -0.002405979          0.915073289
