5
Final structure: -40.4696 hartree
C           -0.000018498          0.000014121          0.000000571
H            0.550521788          0.794318915          0.493252354
H            0.678822634         -0.808054947         -0.251998775
H           -0.773084948         -0.371080145          0.664807002
H           -0.456328807          0.384883462         -0.906070819
