4
Final structure: -114.421 hartree
C           -0.009886146          0.001421021          0.001706542
O            1.180819451         -0.157152018         -0.074371638
H           -0.480923177          0.978745607         -0.182911686
H           -0.692428775         -0.822318077          0.260006515
