6
Final structure: -78.07 hartree
C           -0.654982179         -0.051830295         -0.000252195
C            0.654912748          0.051826042          0.000285447
H           -1.224092240          0.002766841         -0.909158478
H           -1.209159640         -0.195345567          0.908190727
H            1.209091456          0.195341014         -0.908156735
H            1.224021660         -0.002773596          0.909192339
