4
Final structure: -56.2245 hartree
N           -0.002410991         -0.000575110          0.265425109
H           -0.515807197         -0.776754684         -0.094855223
H           -0.413732957          0.836092350         -0.090430867
H            0.931948758         -0.058763652         -0.080142253
