6
Final structure: -78.5083 hartree
C           -0.661952561         -0.052432211         -0.000218808
C            0.661882943          0.052427954          0.000251090
H           -1.231763378          0.003054414         -0.915523753
H           -1.216606618         -0.197004702          0.914670455
H            1.216538678          0.196998826         -0.914637362
H            1.231692358         -0.003061058          0.915556793
