4
Final structure: -437.225 hartree
C           -0.114578130          0.009319087          0.001333947
S            1.488253709         -0.117480810         -0.017269804
H           -0.658983840          0.272823762          0.901707546
H           -0.714146682         -0.163669521         -0.885840128
