4
Final structure: -56.5182 hartree
N           -0.002603009         -0.000634859          0.281439790
H           -0.518524490         -0.781430907         -0.099479961
H           -0.416458820          0.840746288         -0.095020408
H            0.937311042         -0.058766835         -0.084758537
