4
Final structure: -342.938 hartree
P           -0.005038452         -0.001128697          0.568778631
H           -0.656352683         -0.990014101         -0.197579080
H           -0.527053158          1.065418689         -0.192403372
H            1.188275370         -0.074296576         -0.179574999
