6
Final structure: -78.537 hartree
C           -0.664720075         -0.052708305          0.000113046
C            0.664650829          0.052703649         -0.000079431
H           -1.245505570          0.002498212         -0.925939460
H           -1.229262223         -0.198787544          0.926338705
H            1.229193989          0.198781737         -0.926304855
H            1.245435634         -0.002504345          0.925973654
