5
Final structure: -40.4823 hartree
C           -0.000022430          0.000024728         -0.000002576
H            0.558080657          0.805594659          0.500162300
H            0.688462950         -0.819353526         -0.255379549
H           -0.783948079         -0.376310673          0.674113762
H           -0.462673097          0.390144811         -0.918894032
