4
Final structure: -114.45 hartree
C           -0.000147058         -0.000001412          0.000011807
O            1.191160816         -0.157915640         -0.076159958
H           -0.488881246          0.991268409         -0.185968425
H           -0.702140899         -0.833418583          0.262124524
