4
Final structure: -56.519 hartree
N           -0.002918429         -0.000709256          0.315675183
H           -0.516759414         -0.777974490         -0.111773635
H           -0.414098202          0.837761164         -0.107159192
H            0.933776046         -0.059077418         -0.096742356
