4
Final structure: -343.099 hartree
P           -0.005918158         -0.001320821          0.585833638
H           -0.662908420         -0.996878849         -0.204306403
H           -0.529326673          1.075002992         -0.198161679
H            1.198153246         -0.076803323         -0.183365555
