6
Final structure: -115.66 hartree
C           -0.351177406         -0.042680253         -0.018360643
O            1.007456075         -0.353367161         -0.269635335
H           -0.533641750          1.045378779          0.097572836
H           -0.623487118         -0.530790183          0.930599095
H           -1.036324991         -0.424565455         -0.802787999
H            1.253732350          0.072199412         -1.103192898
