4
Final structure: -26.6155 hartree
B            0.000011610         -0.000005290         -0.198446679
H           -0.398727870         -1.027665705          0.214796727
H           -0.170933579          0.988429112          0.417716549
H            0.569649855          0.039241878         -1.227938863
