4
Final structure: -77.398 hartree
C           -0.592531419         -0.000000053         -0.000013832
C            0.592544028          0.000000064          0.000013808
H           -1.645497829         -0.000000007         -0.000093818
H            1.645485220         -0.000000004          0.000093842
