6
Final structure: -78.6551 hartree
C           -0.652232557         -0.051595502          0.000069787
C            0.652163305          0.051590856         -0.000036162
H           -1.219133365          0.003278551         -0.907732902
H           -1.203297001         -0.194923924          0.907956741
H            1.203228755          0.194917719         -0.907922789
H            1.219063447         -0.003284295          0.907766986
