5
Final structure: -40.5465 hartree
C           -0.000020987          0.000015573          0.000004632
H            0.546161504          0.788003521          0.489273612
H            0.673398250         -0.801623413         -0.249982258
H           -0.766914104         -0.368087292          0.659545178
H           -0.452724663          0.381791610         -0.898841258
