5
Final structure: -40.5465 hartree
C           -0.000054954          0.000116668         -0.000026690
H            0.546416442          0.786895395          0.490648791
H            0.672865118         -0.801455660         -0.251335372
H           -0.766881753         -0.368773144          0.659159573
H           -0.452444850          0.383316739         -0.898446397
