4
Final structure: -114.614 hartree
C           -0.007835338          0.000980406          0.000482537
O            1.165158058         -0.157169925         -0.074310021
H           -0.471871785          0.974777942         -0.183631185
H           -0.685459323         -0.818655649          0.257466618
