4
Final structure: -114.614 hartree
C           -0.007795961          0.001024964          0.000486488
O            1.165505238         -0.154889343         -0.074046141
H           -0.473682561          0.973973523         -0.183652923
H           -0.684035104         -0.820176370          0.257220525
