4
Final structure: -56.6141 hartree
N           -0.002434852         -0.000602580          0.270233110
H           -0.515811760         -0.777812561         -0.096470292
H           -0.414645767          0.836643175         -0.091966089
H            0.932892379         -0.058228034         -0.081796730
