4
Final structure: -56.6141 hartree
N           -0.002580715         -0.000575249          0.270188710
H           -0.517195490         -0.776790108         -0.096825129
H           -0.413012573          0.837455363         -0.092092082
H            0.932788778         -0.060090005         -0.081271499
