4
Final structure: -343.351 hartree
P           -0.003745604         -0.002953922          0.570069865
H           -0.649897111         -0.978554176         -0.199139814
H           -0.521825973          1.054364794         -0.188528889
H            1.175468683         -0.072856696         -0.182401162
