4
Final structure: -343.351 hartree
P           -0.004926324         -0.001091311          0.570001644
H           -0.648941123         -0.979548172         -0.197459032
H           -0.521633193          1.053744700         -0.192548808
H            1.175500635         -0.073105218         -0.179993805
