6
Final structure: -115.839 hartree
C           -0.354950330         -0.041616919         -0.017536991
O            0.980204254         -0.341017810         -0.275749826
H           -0.522820632          1.022520788          0.094610318
H           -0.613893392         -0.521739717          0.911635531
H           -1.016483080         -0.419315951         -0.787480048
H            1.244500340          0.067344747         -1.091283929
