4
Final structure: -77.2941 hartree
C           -0.601234796         -0.000000005         -0.000013353
C            0.601234644          0.000000001          0.000013141
H           -1.661738808          0.000000046         -0.000095469
H            1.661738640         -0.000000064          0.000095257
