5
Final structure: -40.4882 hartree
C           -0.000019270          0.000016972          0.000022546
H            0.551214349          0.795347536          0.493886322
H            0.679690375         -0.809083884         -0.252274340
H           -0.774076895         -0.371535970          0.665673559
H           -0.456905824          0.385356441         -0.907210613
