4
Final structure: -437.338 hartree
C           -0.114375449          0.009155664          0.000977231
S            1.490320357         -0.118176345         -0.017531370
H           -0.660365371          0.272983091          0.901755196
H           -0.715557405         -0.163627975         -0.886616370
