6
Final structure: -115.685 hartree
C           -0.365139115         -0.040885759         -0.014022257
O            0.999755374         -0.346949269         -0.277862541
H           -0.527595012          1.032883069          0.098201157
H           -0.618143818         -0.528655014          0.922774262
H           -1.026423811         -0.422641455         -0.794365669
H            1.254469417          0.071874611         -1.103198217
