4
Final structure: -26.5812 hartree
B            0.000011492         -0.000006908         -0.198442828
H           -0.401950362         -1.035753733          0.218071314
H           -0.172253178          0.996219500          0.422601182
H            0.574171631          0.039518913         -1.236054441
