6
Final structure: -78.5406 hartree
C           -0.661546611         -0.052493890          0.000090744
C            0.661589134          0.052362698          0.000027695
H           -1.233555447          0.002354371         -0.915085878
H           -1.217670980         -0.196758528          0.915320702
H            1.217719062          0.196624164         -0.915199661
H            1.233592680         -0.002479670          0.915209138
