5
Final structure: -40.4872 hartree
C           -0.000008881          0.000014625          0.000000079
H            0.551129325          0.795228419          0.493782243
H            0.679596900         -0.808960446         -0.252242648
H           -0.773945056         -0.371476487          0.665546645
H           -0.456818841          0.385280571         -0.907098597
