4
Final structure: -114.464 hartree
C           -0.009303401          0.001349857          0.000526520
O            1.181804377         -0.156999206         -0.075809397
H           -0.482570663          0.980240303         -0.184314798
H           -0.693888696         -0.823656659          0.259556448
