4
Final structure: -343.029 hartree
P           -0.005031609         -0.001074001          0.572384552
H           -0.656275787         -0.990350594         -0.198299319
H           -0.527421279          1.065438262         -0.193394984
H            1.188440740         -0.074043201         -0.180610426
