6
Final structure: -115.678 hartree
C           -0.359491349         -0.040222886         -0.015941991
O            1.001561932         -0.347824762         -0.275741868
H           -0.527969796          1.033316574          0.097168251
H           -0.618521781         -0.525413284          0.920917552
H           -1.026360687         -0.420220062         -0.793473992
H            1.250169940          0.072737790         -1.101168629
