4
Final structure: -26.5864 hartree
B            0.000000209          0.000017962         -0.198482836
H           -0.402851076         -1.038479247          0.219068815
H           -0.171983076          0.998576123          0.424728633
H            0.574833959          0.039885156         -1.239186877
