4
Final structure: -77.2969 hartree
C           -0.595193930          0.000000012         -0.000014411
C            0.595193920         -0.000000009          0.000014422
H           -1.658288785         -0.000000023         -0.000094497
H            1.658288795          0.000000019          0.000094486
