6
Final structure: -78.5504 hartree
C           -0.657692365         -0.052021842         -0.000201019
C            0.657623229          0.052018391          0.000233997
H           -1.230886766          0.003044197         -0.916560472
H           -1.215698305         -0.196601316          0.915786696
H            1.215631961          0.196594262         -0.915752612
H            1.230814830         -0.003050287          0.916595071
