5
Final structure: -40.4934 hartree
C           -0.000023096          0.000024508          0.000001500
H            0.551692516          0.796291931          0.494314241
H            0.680482684         -0.809901288         -0.252440143
H           -0.774865236         -0.371922060          0.666381156
H           -0.457386867          0.385606907         -0.908256850
