4
Final structure: -437.453 hartree
C           -0.109774391          0.008710589          0.001184444
S            1.478452291         -0.117645754         -0.015554488
H           -0.657537683          0.273009215          0.901295870
H           -0.711144355         -0.164136345         -0.886846424
