4
Final structure: -56.5427 hartree
N           -0.002522781         -0.000615143          0.277567100
H           -0.519783310         -0.782586697         -0.098973586
H           -0.416732747          0.842508045         -0.094444844
H            0.939038838         -0.059306205         -0.084148671
