4
Final structure: -343.141 hartree
P           -0.005369014         -0.001292779          0.567852280
H           -0.658738534         -0.992051834         -0.197798162
H           -0.527466350          1.068725142         -0.191860973
H            1.191573892         -0.075380528         -0.178193146
