6
Final structure: -115.698 hartree
C           -0.360077575         -0.041953927         -0.014914020
O            0.995466338         -0.343988983         -0.278389344
H           -0.527673926          1.032481776          0.098798446
H           -0.618687910         -0.528447511          0.922764767
H           -1.025622242         -0.423503153         -0.793949471
H            1.253152475          0.071586936         -1.100115321
