4
Final structure: -26.5412 hartree
B            0.000001107          0.000009959         -0.198479838
H           -0.400711815         -1.032867779          0.216786336
H           -0.171155555          0.993196599          0.421313991
H            0.571866279          0.039661216         -1.233492754
