4
Final structure: -26.5412 hartree
B            0.000034499          0.000004050         -0.198497211
H           -0.400761206         -1.032937510          0.216538011
H           -0.171230227          0.993022536          0.421552608
H            0.571956950          0.039910918         -1.233465674
