4
Final structure: -77.2088 hartree
C           -0.595046800         -0.000000029         -0.000011060
C            0.595046888          0.000000029          0.000011056
H           -1.652338279         -0.000000002         -0.000095301
H            1.652338190          0.000000001          0.000095305
