4
Final structure: -77.2088 hartree
C           -0.595044696         -0.000000110         -0.000011060
C            0.595048423          0.000000106          0.000011057
H           -1.652336544          0.000000044         -0.000095314
H            1.652332817         -0.000000040          0.000095318
