6
Final structure: -78.4563 hartree
C           -0.657185465         -0.052051769          0.000095221
C            0.657116193          0.052047455         -0.000061831
H           -1.227273346          0.002756508         -0.911468270
H           -1.211294335         -0.195944057          0.911801596
H            1.211226592          0.195938664         -0.911767379
H            1.227202945         -0.002763395          0.911502324
