5
Final structure: -40.4406 hartree
C           -0.000023569          0.000023574          0.000000129
H            0.549072563          0.792506023          0.491994176
H            0.677250656         -0.806062396         -0.251256056
H           -0.771196010         -0.370170314          0.663210853
H           -0.455203639          0.383803111         -0.903949198
