4
Final structure: -56.4925 hartree
N           -0.002533040         -0.000594362          0.276478132
H           -0.517403259         -0.779121566         -0.098572988
H           -0.414915321          0.838706208         -0.094162397
H            0.934851619         -0.058990280         -0.083742747
