4
Final structure: -56.4925 hartree
N           -0.002497308         -0.000397354          0.276472008
H           -0.516501787         -0.779879314         -0.097964005
H           -0.415945835          0.838246997         -0.094590433
H            0.934944931         -0.057970329         -0.083917571
