6
Final structure: -115.603 hartree
C           -0.360375570         -0.041391574         -0.015007047
O            0.990179598         -0.343198680         -0.277661319
H           -0.524255222          1.028297284          0.096670790
H           -0.615683488         -0.525853634          0.918464060
H           -1.021218144         -0.420873019         -0.791555786
H            1.247909986          0.069194762         -1.096715642
