6
Final structure: -115.603 hartree
C           -0.360517283         -0.041656265         -0.015219274
O            0.990423577         -0.342644721         -0.277316350
H           -0.525301225          1.027949517          0.096601327
H           -0.615910795         -0.526556151          0.918014943
H           -1.020695340         -0.421541633         -0.792110903
H            1.248558226          0.070624389         -1.095774688
