6
Final structure: -78.5073 hartree
C           -0.657222534         -0.051770287         -0.000712226
C            0.657153493          0.051769024          0.000745119
H           -1.228376250          0.003835538         -0.914337710
H           -1.214718618         -0.196187058          0.911635002
H            1.214652458          0.196181692         -0.911601088
H            1.228304124         -0.003838932          0.914372520
