4
Final structure: -343.104 hartree
P           -0.005564881         -0.001492744          0.558346916
H           -0.660459304         -0.994388578         -0.195234589
H           -0.528453825          1.071487254         -0.188607502
H            1.194543914         -0.075684750         -0.174379474
