4
Final structure: -26.5561 hartree
B            0.000004574          0.000011572         -0.198480579
H           -0.408568893         -1.053089115          0.224875948
H           -0.174611322          1.012625301          0.433403788
H            0.583175657          0.040452237         -1.253671422
