4
Final structure: -77.2308 hartree
C           -0.604484094         -0.000000021         -0.000013334
C            0.604483958          0.000000020          0.000013329
H           -1.677249900         -0.000000032         -0.000095901
H            1.677250036          0.000000033          0.000095907
