6
Final structure: -78.4876 hartree
C           -0.663329899         -0.052595217          0.000038924
C            0.663260585          0.052590561         -0.000005301
H           -1.243029522          0.002689959         -0.925750736
H           -1.227005380         -0.198566662          0.925869187
H            1.226937160          0.198560491         -0.925835346
H            1.242959640         -0.002695727          0.925784932
