5
Final structure: -40.4584 hartree
C           -0.000021996          0.000023554         -0.000000660
H            0.557196069          0.804227822          0.499294505
H            0.687276732         -0.818000194         -0.254967438
H           -0.782628300         -0.375647457          0.673008503
H           -0.461922504          0.389496274         -0.917335005
