4
Final structure: -56.4864 hartree
N           -0.002873076         -0.000698079          0.314770105
H           -0.515221258         -0.775858560         -0.111355186
H           -0.413045753          0.835344531         -0.106836652
H            0.931140087         -0.058787892         -0.096578266
