4
Final structure: -343.009 hartree
P           -0.005735852         -0.001271603          0.586558055
H           -0.660906570         -0.994461372         -0.204216580
H           -0.528305903          1.071969869         -0.198332111
H            1.194948320         -0.076236894         -0.184009364
