6
Final structure: -115.592 hartree
C           -0.346679165         -0.043539428         -0.019736681
O            1.001826173         -0.351261696         -0.269503009
H           -0.530833374          1.042527247          0.097290757
H           -0.621255203         -0.530316412          0.927712776
H           -1.032236566         -0.424748612         -0.801927784
H            1.245735295          0.073514038         -1.099641004
