4
Final structure: -26.5842 hartree
B            0.000012845         -0.000004899         -0.198441439
H           -0.403182757         -1.039104899          0.219382296
H           -0.172976152          0.999448790          0.424479049
H            0.576146080          0.039661003         -1.239292172
