4
Final structure: -77.2912 hartree
C           -0.595564177         -0.000000053         -0.000014357
C            0.595564184          0.000000045          0.000014362
H           -1.658805545          0.000000006         -0.000094440
H            1.658805538          0.000000001          0.000094435
