6
Final structure: -78.5445 hartree
C           -0.657783423         -0.052060004         -0.000150885
C            0.657714302          0.052056567          0.000183900
H           -1.231398152          0.003005620         -0.916925871
H           -1.216044738         -0.196767695          0.916325876
H            1.215978302          0.196760557         -0.916291833
H            1.231326293         -0.003011640          0.916960473
