5
Final structure: -40.4902 hartree
C           -0.000019389          0.000016375          0.000001012
H            0.552143344          0.796635801          0.494712774
H            0.680785558         -0.810450783         -0.252706801
H           -0.775386613         -0.372130140          0.666733837
H           -0.457622898          0.386028746         -0.908740918
