4
Final structure: -343.137 hartree
P           -0.004854396         -0.001100848          0.569213233
H           -0.657888891         -0.992913645         -0.197277017
H           -0.528794030          1.068205037         -0.192205699
H            1.191537311         -0.074190544         -0.179730518
