6
Final structure: -115.687 hartree
C           -0.358421596         -0.042156008         -0.015114789
O            0.996937293         -0.345795800         -0.277861551
H           -0.527452760          1.033115138          0.098806883
H           -0.618889789         -0.528251770          0.923213150
H           -1.026554753         -0.422735723         -0.793913115
H            1.250938765          0.071999302         -1.100935522
