4
Final structure: -26.5667 hartree
B            0.000012002         -0.000002745         -0.198438086
H           -0.404003384         -1.041261703          0.220274580
H           -0.173343306          1.001540267          0.425743924
H            0.577334704          0.039724176         -1.241452684
