4
Final structure: -77.2568 hartree
C           -0.598308569          0.000000106         -0.000013706
C            0.598308618         -0.000000100          0.000013714
H           -1.662170925         -0.000000060         -0.000094861
H            1.662170876          0.000000054          0.000094853
