5
Final structure: -40.4756 hartree
C           -0.000021407          0.000015373          0.000003272
H            0.552510910          0.797160664          0.494999615
H            0.681222702         -0.810972216         -0.252872637
H           -0.775871033         -0.372361233          0.667191730
H           -0.457941171          0.386257409         -0.909322074
