4
Final structure: -437.306 hartree
C           -0.109967624          0.008739676          0.001188445
S            1.484682169         -0.118186883         -0.015813542
H           -0.660379864          0.273619750          0.903286150
H           -0.714338820         -0.164234837         -0.888581650
