4
Final structure: -56.5164 hartree
N           -0.002553144         -0.000627283          0.283205818
H           -0.518717214         -0.782044826         -0.100813000
H           -0.416802393          0.841320656         -0.096317373
H            0.938072752         -0.058648546         -0.086075445
