6
Final structure: -115.639 hartree
C           -0.357959116         -0.041799481         -0.015827502
O            0.995046485         -0.345998662         -0.276253862
H           -0.526517013          1.034805615          0.098104368
H           -0.618879838         -0.528118226          0.923569071
H           -1.026307872         -0.423472313         -0.795644318
H            1.251174513          0.070758205         -1.099752701
