4
Final structure: -437.454 hartree
C           -0.109901357          0.008720686          0.001186101
S            1.478457447         -0.117646721         -0.015558255
H           -0.657471174          0.273031560          0.901409102
H           -0.711089055         -0.164167819         -0.886957545
