6
Final structure: -115.7 hartree
C           -0.361875672         -0.041815074         -0.014127153
O            0.994862142         -0.343459273         -0.278939299
H           -0.527041092          1.032774581          0.098728554
H           -0.618610252         -0.528913467          0.923508637
H           -1.025218199         -0.423822877         -0.794384540
H            1.254440233          0.071411248         -1.100591143
