4
Final structure: -113.923 hartree
C           -0.004980519          0.000642261          0.000320476
O            1.159241904         -0.153518718         -0.074146370
H           -0.472755707          0.970722838         -0.182712225
H           -0.681503243         -0.817915135          0.256546009
