4
Final structure: -26.5974 hartree
B            0.000011144         -0.000002736         -0.198435248
H           -0.402531621         -1.037545571          0.218840282
H           -0.172703322          0.998005324          0.423501031
H            0.575223815          0.039542978         -1.237778332
