4
Final structure: -437.43 hartree
C           -0.111846342          0.008864793          0.001227180
S            1.489747819         -0.118376025         -0.016102015
H           -0.661933878          0.273017375          0.901538336
H           -0.715971739         -0.163568439         -0.886584098
