4
Final structure: -56.5536 hartree
N           -0.002533780         -0.000621165          0.280172502
H           -0.520301849         -0.784602410         -0.099840335
H           -0.418235626          0.843961682         -0.095326371
H            0.941071255         -0.058738107         -0.085005795
