4
Final structure: -77.2052 hartree
C           -0.609184162          0.000000120         -0.000013144
C            0.609178690          0.000000054          0.000012810
H           -1.681128874          0.000000065         -0.000096760
H            1.681123390          0.000000057          0.000096534
