6
Final structure: -78.4493 hartree
C           -0.666980797         -0.052611375         -0.000133753
C            0.666877153          0.052638730          0.000181125
H           -1.243478031          0.003143472         -0.926065634
H           -1.228013087         -0.198209764          0.925530839
H            1.227914537          0.198230511         -0.925480755
H            1.243368721         -0.003111586          0.926116765
