5
Final structure: -40.4344 hartree
C           -0.000030001          0.000034303          0.000021656
H            0.556767893          0.803568751          0.498964302
H            0.686712064         -0.817338308         -0.254792838
H           -0.782024893         -0.375361605          0.672481950
H           -0.461566801          0.389260014         -0.916563259
