4
Final structure: -114.345 hartree
C           -0.003608160          0.000534915          0.000337585
O            1.191858732         -0.157985936         -0.076675456
H           -0.488512143          0.987160890         -0.184890999
H           -0.700626704         -0.829383827          0.261650784
