4
Final structure: -437.162 hartree
C           -0.111713008          0.008836120          0.001011181
S            1.497158613         -0.118623788         -0.017426529
H           -0.668157483          0.275461119          0.910347432
H           -0.723650986         -0.165204316         -0.895018801
