4
Final structure: -342.903 hartree
P           -0.005663680         -0.001327851          0.575054351
H           -0.660765919         -0.994874222         -0.200351928
H           -0.529092013          1.071697625         -0.194476781
H            1.194684953         -0.075673860         -0.180721450
