4
Final structure: -77.3083 hartree
C           -0.609718443          0.000000008         -0.000011830
C            0.609718247          0.000000006          0.000011832
H           -1.686016451          0.000000006         -0.000097035
H            1.686016647         -0.000000020          0.000097034
