6
Final structure: -78.5539 hartree
C           -0.670374426         -0.053233199          0.000360778
C            0.670305333          0.053228578         -0.000327219
H           -1.254162995          0.002065430         -0.927894370
H           -1.237143842         -0.199946546          0.929221386
H            1.237075676          0.199940623         -0.929187350
H            1.254092837         -0.002071480          0.927928436
