5
Final structure: -40.4843 hartree
C           -0.000023665          0.000025850         -0.000003557
H            0.559637068          0.807930675          0.501627121
H            0.690488988         -0.821669264         -0.256140011
H           -0.786180230         -0.377456974          0.676049600
H           -0.464022158          0.391269712         -0.921533248
