4
Final structure: -56.5445 hartree
N           -0.002860235         -0.000542811          0.296123026
H           -0.524721470         -0.789339168         -0.105232184
H           -0.419921431          0.850232012         -0.101192331
H            0.947503136         -0.060350033         -0.089698511
