4
Final structure: -343.135 hartree
P           -0.006188656         -0.001262237          0.593791366
H           -0.665681982         -1.000421920         -0.207137100
H           -0.530903582          1.079272474         -0.201085835
H            1.202774215         -0.077588317         -0.185568430
