4
Final structure: -26.5936 hartree
B           -0.000007554          0.000013311         -0.198491309
H           -0.407592784         -1.049949048          0.223824844
H           -0.174074523          1.009892946          0.431375846
H            0.581674878          0.040042786         -1.250581646
