4
Final structure: -77.3043 hartree
C           -0.605015365          0.000000006         -0.000012246
C            0.605015571         -0.000000003          0.000012247
H           -1.679319356          0.000000002         -0.000096364
H            1.679319149         -0.000000005          0.000096363
