6
Final structure: -78.5608 hartree
C           -0.665761261         -0.052764189         -0.000133304
C            0.665692113          0.052759445          0.000166876
H           -1.243389320          0.002999147         -0.927353202
H           -1.227805350         -0.198876516          0.926832082
H            1.227737170          0.198870444         -0.926798066
H            1.243319231         -0.003004927          0.927387274
