5
Final structure: -40.4978 hartree
C           -0.000022194          0.000022542         -0.000003610
H            0.557491459          0.804777583          0.499630996
H            0.687763990         -0.818493476         -0.255120854
H           -0.783116800         -0.375933115          0.673431451
H           -0.462216454          0.389726464         -0.917938079
