5
Final structure: -40.4978 hartree
C           -0.000021584          0.000027397         -0.000048061
H            0.557520799          0.804656857          0.499774826
H            0.687720490         -0.818510337         -0.255206964
H           -0.783136735         -0.375966341          0.673369951
H           -0.462182969          0.389892422         -0.917889847
