4
Final structure: -114.479 hartree
C           -0.009487727          0.001244417          0.000598754
O            1.185948582         -0.157529560         -0.075615464
H           -0.480920311          0.994063243         -0.187329318
H           -0.695548931         -0.837845327          0.262353977
