4
Final structure: -437.444 hartree
C           -0.112149017          0.008926672          0.001166099
S            1.492368012         -0.119006082         -0.015166210
H           -0.663213038          0.276701645          0.913489352
H           -0.717010095         -0.166684530         -0.899409838
