4
Final structure: -437.444 hartree
C           -0.112111390          0.008932389          0.001183915
S            1.492398618         -0.119054833         -0.015380052
H           -0.663136446          0.276509282          0.913621751
H           -0.717154920         -0.166449132         -0.899346212
