4
Final structure: -343.127 hartree
P           -0.005668137         -0.001361939          0.576612183
H           -0.663673259         -0.998840815         -0.201130660
H           -0.530746109          1.076564984         -0.194872078
H            1.200087500         -0.076362229         -0.180609445
