4
Final structure: -114.446 hartree
C           -0.011628868          0.001585335          0.000953661
O            1.178346151         -0.156365142         -0.075039599
H           -0.479237956          0.979323444         -0.183549427
H           -0.690362149         -0.823994443          0.258660087
