4
Final structure: -437.242 hartree
C           -0.114560081          0.009010225          0.001997505
S            1.485908087         -0.118169777         -0.014918136
H           -0.659457453          0.272742990          0.901210274
H           -0.712967011         -0.163860266         -0.885192643
