4
Final structure: -56.5285 hartree
N           -0.002653094         -0.000647628          0.279708010
H           -0.518337165         -0.780656839         -0.099631301
H           -0.415911630          0.840138981         -0.095178367
H            0.936468933         -0.058999693         -0.084831265
