6
Final structure: -78.5832 hartree
C           -0.660580157         -0.052018782         -0.000521017
C            0.660510880          0.052014495          0.000554445
H           -1.234237822          0.004013536         -0.920633295
H           -1.219932893         -0.197212896          0.918641772
H            1.219865178          0.197207296         -0.918607671
H            1.234167397         -0.004020244          0.920667426
