6
Final structure: -78.5832 hartree
C           -0.660543269         -0.051836022         -0.000476489
C            0.660587658          0.051821848          0.000513813
H           -1.234359056          0.004345366         -0.920488295
H           -1.219946836         -0.196827720          0.918698953
H            1.219810173          0.196694562         -0.918775300
H            1.234243913         -0.004214629          0.920628979
