4
Final structure: -437.466 hartree
C           -0.111085185          0.008864386          0.001233656
S            1.485550803         -0.119242926         -0.016311296
H           -0.659792559          0.273438464          0.905334618
H           -0.714677199         -0.163122219         -0.890177575
