4
Final structure: -437.466 hartree
C           -0.111096136          0.008844219          0.001233201
S            1.485536944         -0.118830454         -0.016295487
H           -0.659825820          0.273897652          0.905217702
H           -0.714619127         -0.163973712         -0.890076012
