4
Final structure: -343.141 hartree
P           -0.005107676         -0.001158037          0.572281589
H           -0.658538769         -0.993443093         -0.198661238
H           -0.528823918          1.069137592         -0.193335165
H            1.192470357         -0.074536463         -0.180285186
