4
Final structure: -343.141 hartree
P           -0.005085461         -0.001133302          0.572286872
H           -0.658541194         -0.993469999         -0.198565224
H           -0.528818684          1.069124214         -0.193374435
H            1.192445334         -0.074520913         -0.180347214
