6
Final structure: -115.725 hartree
C           -0.358611611         -0.042125634         -0.014796213
O            1.001032128         -0.348945429         -0.277184801
H           -0.527304639          1.036912203          0.098666665
H           -0.618550167         -0.529508102          0.926921192
H           -1.029376700         -0.423879122         -0.795652513
H            1.249368149          0.073721221         -1.103759275
