4
Final structure: -77.2972 hartree
C           -0.595287596          0.000000022         -0.000014576
C            0.595287673         -0.000000025          0.000014575
H           -1.658459328         -0.000000013         -0.000094471
H            1.658459251          0.000000016          0.000094472
