6
Final structure: -78.5508 hartree
C           -0.657833787         -0.052033218         -0.000201195
C            0.657764603          0.052029748          0.000234204
H           -1.230958169          0.003048334         -0.916632257
H           -1.215768098         -0.196617035          0.915858196
H            1.215701705          0.196609935         -0.915824109
H            1.230886330         -0.003054358          0.916666820
