4
Final structure: -114.48 hartree
C           -0.007577710          0.000984254          0.000486207
O            1.174216387         -0.155585976         -0.075050981
H           -0.477552332          0.982804499         -0.185096578
H           -0.689094733         -0.828270004          0.259669300
