2
Coordinates from ORCA-job 33_SO E -473.445872094024
  S       0.000000     -0.000000      0.002547
  O      -0.000000      0.000000      1.483667
2
Coordinates from ORCA-job 33_SO E -473.445749928104
  S       0.000000     -0.000000      0.006081
  O      -0.000000      0.000000      1.480134
2
Coordinates from ORCA-job 33_SO E -473.445553023121
  S       0.000000     -0.000000      0.009185
  O      -0.000000      0.000000      1.477029
2
Coordinates from ORCA-job 33_SO E -473.445560835453
  S       0.000000     -0.000000      0.009079
  O      -0.000000      0.000000      1.477136
2
Coordinates from ORCA-job 33_SO E -473.445561311867
  S       0.000000     -0.000000      0.009081
  O      -0.000000      0.000000      1.477134
