4
Final structure: -26.5934 hartree
B            0.000011150          0.000000284         -0.198427118
H           -0.404064533         -1.041561031          0.220508014
H           -0.173437877          1.001915606          0.425819325
H            0.577491276          0.039645135         -1.241772486
