4
Final structure: -77.3358 hartree
C           -0.602838223         -0.000000158         -0.000012639
C            0.602838264          0.000000184          0.000012624
H           -1.669585831          0.000000026         -0.000095643
H            1.669585790         -0.000000052          0.000095658
