5
Final structure: -40.5035 hartree
C           -0.000021947          0.000011678          0.000007567
H            0.555304462          0.801103510          0.497426078
H            0.684596859         -0.814978808         -0.254216936
H           -0.779671535         -0.374234274          0.670558870
H           -0.460307837          0.388197892         -0.913775675
