4
Final structure: -114.529 hartree
C           -0.007737007          0.001028395          0.000462292
O            1.191667143         -0.159020841         -0.074985919
H           -0.484507821          0.990362603         -0.186862585
H           -0.699430703         -0.832437383          0.261394159
