4
Final structure: -437.485 hartree
C           -0.113396819          0.008987988          0.001253019
S            1.502441785         -0.119374041         -0.016412995
H           -0.667255123          0.274536586          0.906654851
H           -0.721793983         -0.164212829         -0.891415472
