4
Final structure: -56.5637 hartree
N           -0.002605514         -0.000610076          0.289249234
H           -0.522121005         -0.788262300         -0.102788347
H           -0.420459357          0.847374936         -0.098451755
H            0.945185876         -0.058502560         -0.088009132
