6
Final structure: -115.738 hartree
C           -0.370743729         -0.039447486         -0.011846185
O            1.012425073         -0.352950338         -0.276546335
H           -0.532440655          1.043167126          0.100746810
H           -0.622754898         -0.531176535          0.932298618
H           -1.036998982         -0.424653677         -0.798367034
H            1.267070350          0.071236049         -1.112090819
