4
Final structure: -26.5559 hartree
B           -0.000004104          0.000032015         -0.198497264
H           -0.405673166         -1.045874581          0.222050468
H           -0.172891060          1.005607321          0.429365507
H            0.578568346          0.040235240         -1.246790976
