5
Final structure: -40.4682 hartree
C           -0.000027252          0.000026855          0.000005527
H            0.555515680          0.802079888          0.497682865
H            0.685410484         -0.815584025         -0.254133172
H           -0.780292961         -0.374566307          0.671185769
H           -0.460705950          0.388143588         -0.914741084
