4
Final structure: -437.278 hartree
C           -0.110914670          0.008765865          0.001211544
S            1.497308198         -0.118761571         -0.015926433
H           -0.666121483          0.275320318          0.909160607
H           -0.720276186         -0.165386907         -0.894366315
