6
Final structure: -115.642 hartree
C           -0.362085452         -0.041071552         -0.014891934
O            1.007051079         -0.351059139         -0.273110380
H           -0.531270199          1.043006466          0.099028608
H           -0.622855767         -0.530919533          0.930622389
H           -1.033633117         -0.426194855         -0.800711994
H            1.259350615          0.072413751         -1.106741633
