4
Final structure: -26.5785 hartree
B           -0.000030361          0.000016378         -0.198455289
H           -0.403260805         -1.036357291          0.219889641
H           -0.171074892          0.998303320          0.422715625
H            0.574309687          0.038011539         -1.237880057
