6
Final structure: -78.5021 hartree
C           -0.657595926         -0.051846428         -0.000791646
C            0.657527154          0.051842408          0.000825941
H           -1.228728131          0.003968149         -0.915003593
H           -1.215321551         -0.196550681          0.911962947
H            1.215255665          0.196543273         -0.911927546
H            1.228656588         -0.003974612          0.915039619
