5
Final structure: -40.4659 hartree
C            0.000010846          0.000011138          0.000012838
H            0.551125049          0.795003809          0.493452373
H            0.679394695         -0.808738928         -0.252145272
H           -0.773689846         -0.371242901          0.665432497
H           -0.456796142          0.385063382         -0.906785918
