4
Final structure: -114.42 hartree
C           -0.007434905          0.000719217          0.000480987
O            1.169947746         -0.155858938         -0.074095286
H           -0.475882919          0.978253695         -0.186025568
H           -0.687460406         -0.824058311          0.259529869
