4
Final structure: -343.101 hartree
P           -0.005520728         -0.001585578          0.559160955
H           -0.660480288         -0.995042323         -0.195426562
H           -0.529108193          1.071864271         -0.188496729
H            1.195060323         -0.075279716         -0.174702970
