6
Final structure: -115.633 hartree
C           -0.361609764         -0.041482148         -0.014176497
O            0.991469852         -0.340556653         -0.279289714
H           -0.526847003          1.030722530          0.097390336
H           -0.618373900         -0.527276098          0.921393523
H           -1.022410214         -0.422737578         -0.793500042
H            1.253052822          0.069663387         -1.095416409
