4
Final structure: -26.5805 hartree
B            0.000004279          0.000011665         -0.198483848
H           -0.406127140         -1.046822398          0.222340890
H           -0.173516827          1.006568510          0.429692466
H            0.579639705          0.040242218         -1.247421773
