4
Final structure: -114.47 hartree
C           -0.008738609          0.001137876          0.000558921
O            1.181605481         -0.156574321         -0.075485529
H           -0.479780746          0.990675182         -0.186719028
H           -0.693094513         -0.835305964          0.261653584
