4
Final structure: -437.458 hartree
C           -0.110847436          0.008783981          0.001184868
S            1.488588965         -0.118337959         -0.015464391
H           -0.661946343          0.275476806          0.909869459
H           -0.715799324         -0.165985123         -0.895510532
