4
Final structure: -56.54 hartree
N           -0.002584979         -0.000571661          0.279194267
H           -0.523026935         -0.787027731         -0.099518240
H           -0.418913874          0.847534805         -0.095207157
H            0.944525789         -0.059935413         -0.084468869
