4
Final structure: -343.148 hartree
P           -0.005768664         -0.001343282          0.577245978
H           -0.662371013         -0.996487185         -0.201412599
H           -0.529318746          1.074284061         -0.195188264
H            1.197458418         -0.076453594         -0.180645115
