6
Final structure: -115.689 hartree
C           -0.363384511         -0.041079542         -0.014453461
O            0.997724782         -0.345203262         -0.277466189
H           -0.528830259          1.041464815          0.099916771
H           -0.619240512         -0.532793495          0.930285000
H           -1.030949364         -0.427067119         -0.800405462
H            1.261237025          0.070853741         -1.103681604
