4
Final structure: -77.3198 hartree
C           -0.595216100          0.000000030         -0.000014343
C            0.595216092         -0.000000034          0.000014343
H           -1.656965524         -0.000000013         -0.000094485
H            1.656965532          0.000000016          0.000094486
