4
Final structure: -56.5626 hartree
N           -0.002483400         -0.000588839          0.272114800
H           -0.521278757         -0.784885004         -0.097146692
H           -0.417983114          0.844925353         -0.092696262
H            0.941745271         -0.059451510         -0.082271846
