6
Final structure: -115.733 hartree
C           -0.362350968         -0.041430606         -0.014393535
O            0.993840639         -0.343360684         -0.278420279
H           -0.528169168          1.032052396          0.098733639
H           -0.618363102         -0.528126869          0.922477315
H           -1.025844480         -0.423233582         -0.793275306
H            1.257444239          0.070274484         -1.100926779
