4
Final structure: -77.2897 hartree
C           -0.604976855          0.000000002         -0.000011748
C            0.604976704         -0.000000000          0.000011756
H           -1.675994856         -0.000000023         -0.000096425
H            1.675995008          0.000000022          0.000096416
