6
Final structure: -78.5442 hartree
C           -0.665662199         -0.052812452          0.000206861
C            0.665593094          0.052807747         -0.000173296
H           -1.245111283          0.002348289         -0.923208689
H           -1.228614875         -0.198660861          0.923960078
H            1.228546716          0.198654857         -0.923926052
H            1.245041131         -0.002354175          0.923242759
