4
Final structure: -114.463 hartree
C           -0.007908463          0.001027512          0.000508314
O            1.186781621         -0.157289004         -0.075934060
H           -0.482717859          0.991599431         -0.186550495
H           -0.696163687         -0.835405166          0.261984190
