6
Final structure: -115.679 hartree
C           -0.365379957         -0.040467294         -0.014169161
O            1.003504473         -0.347945223         -0.276264188
H           -0.530634465          1.044110487          0.099505045
H           -0.620864967         -0.532894785          0.932038606
H           -1.033677300         -0.426954023         -0.801910557
H            1.263609377          0.070325977         -1.105004690
