4
Final structure: -26.5677 hartree
B           -0.000004660          0.000054432         -0.198494856
H           -0.407202102         -1.048297270          0.223781925
H           -0.173338891          1.008901669          0.430250727
H            0.580597970          0.039473087         -1.249435730
