4
Final structure: -77.2275 hartree
C           -0.600018029          0.000000013         -0.000014376
C            0.600002149          0.000000114          0.000014553
H           -1.669374658         -0.000000005         -0.000094327
H            1.669359231          0.000000070          0.000094487
