6
Final structure: -78.4754 hartree
C           -0.661441888         -0.052101765         -0.000669750
C            0.661326633          0.052089953          0.000728102
H           -1.238163309          0.004298168         -0.923813947
H           -1.224224851         -0.198200692          0.921246485
H            1.224109379          0.198191860         -0.921187909
H            1.238048252         -0.004315547          0.923872373
