4
Final structure: -77.3017 hartree
C           -0.609752423         -0.000000021         -0.000013587
C            0.609752415          0.000000041          0.000013590
H           -1.687641743         -0.000000067         -0.000096470
H            1.687641750          0.000000047          0.000096466
