6
Final structure: -78.5448 hartree
C           -0.669319733         -0.053103637          0.000201016
C            0.669250261          0.053099102         -0.000167427
H           -1.254184976          0.002272869         -0.931179575
H           -1.237607654         -0.200026836          0.931907569
H            1.237539627          0.200020842         -0.931874117
H            1.254115058         -0.002278935          0.931214195
