4
Final structure: -437.451 hartree
C           -0.109004940          0.008677396          0.001157415
S            1.513279534         -0.120992137         -0.015651998
H           -0.674930210          0.278512365          0.916434098
H           -0.729348522         -0.166259917         -0.901860113
