4
Final structure: -56.5253 hartree
N           -0.003073249         -0.000734437          0.328850325
H           -0.518340364         -0.780343609         -0.116235991
H           -0.415296574          0.840378786         -0.111605914
H            0.936710187         -0.059300740         -0.101008420
