4
Final structure: -26.5996 hartree
B           -0.000066055          0.000055876         -0.198532243
H           -0.315534299         -1.040981587          0.278459490
H           -0.147006456          1.004539318          0.418075536
H            0.462606826          0.036386388         -1.291875048
