4
Final structure: -77.3208 hartree
C           -0.597902711          0.000000064         -0.000013883
C            0.597902720         -0.000000065          0.000013885
H           -1.659489870         -0.000000074         -0.000094827
H            1.659489860          0.000000075          0.000094825
