4
Final structure: -114.503 hartree
C           -0.006839896          0.000884591          0.000438194
O            1.179106955         -0.156250350         -0.075535910
H           -0.480402395          0.982949407         -0.184686133
H           -0.691873052         -0.827650874          0.259791797
