4
Final structure: -437.436 hartree
C           -0.111502077          0.008805375          0.001213489
S            1.488985708         -0.117942353         -0.015712280
H           -0.662022936          0.272965326          0.900787641
H           -0.715464836         -0.163890642         -0.886209447
