4
Final structure: -56.5579 hartree
N           -0.002574241         -0.000597800          0.279468521
H           -0.520523448         -0.783798636         -0.099625783
H           -0.417382882          0.843761484         -0.095198444
H            0.940480570         -0.059365048         -0.084644295
