4
Final structure: -343.121 hartree
P           -0.010057104          0.029163929          0.574159539
H           -0.738877421         -0.941668857         -0.157074129
H           -0.433055272          1.097509968         -0.255368058
H            1.181989788         -0.185005041         -0.161717253
