4
Final structure: -437.312 hartree
C           -0.109616348          0.008688519          0.001179044
S            1.483924210         -0.117941766         -0.015580361
H           -0.660349858          0.273485202          0.902779611
H           -0.713962143         -0.164294250         -0.888298891
