4
Final structure: -77.2579 hartree
C           -0.603318141         -0.000000028         -0.000012776
C            0.603318116          0.000000012          0.000012770
H           -1.673317315         -0.000000144         -0.000095849
H            1.673317341          0.000000160          0.000095854
