4
Final structure: -56.5166 hartree
N           -0.002694227         -0.000652435          0.292840630
H           -0.521557596         -0.785570402         -0.104173538
H           -0.418363748          0.845609358         -0.099577294
H            0.942615572         -0.059386521         -0.089089798
