4
Final structure: -342.994 hartree
P           -0.005689143         -0.001100357          0.591902479
H           -0.658812571         -0.991404974         -0.205565736
H           -0.526712991          1.068500400         -0.200352652
H            1.191214700         -0.075995068         -0.185984091
