4
Final structure: -26.5856 hartree
B            0.000018183          0.000024330         -0.198495221
H           -0.401490011         -1.035101079          0.217653106
H           -0.171484884          0.995336969          0.422635700
H            0.573043540          0.039807725         -1.235754987
