4
Final structure: -114.484 hartree
C           -0.010243385          0.001318337          0.000684337
O            1.180295020         -0.156792786         -0.075669913
H           -0.479713387          0.980775377         -0.183933333
H           -0.691191334         -0.825353874          0.259068182
