4
Final structure: -56.5465 hartree
N           -0.002585844         -0.000606550          0.280415549
H           -0.519126666         -0.781758412         -0.099638713
H           -0.416405679          0.841470556         -0.095237640
H            0.937917185         -0.059125828         -0.084942355
