6
Final structure: -115.701 hartree
C           -0.364525814         -0.040981035         -0.014012131
O            0.998558682         -0.345642303         -0.276907262
H           -0.528213123          1.031870625          0.097985007
H           -0.618127653         -0.528157484          0.921986592
H           -1.025347263         -0.422645370         -0.793748867
H            1.254008606          0.071817172         -1.100839703
