4
Final structure: -77.2041 hartree
C           -0.595736372          0.000000026         -0.000015692
C            0.595736511         -0.000000023          0.000015694
H           -1.653125309         -0.000000008         -0.000093936
H            1.653125171          0.000000005          0.000093934
