6
Final structure: -78.4511 hartree
C           -0.656614911         -0.058015039          0.020033618
C            0.656543225          0.058009841         -0.020000643
H           -1.258294931          0.034823899         -0.868330901
H           -1.177911892         -0.250071040          0.942636518
H            1.177847052          0.250065747         -0.942605004
H            1.258224087         -0.034830003          0.868368068
