5
Final structure: -40.4376 hartree
C           -0.000020896          0.000016136          0.000003948
H            0.549465805          0.792785625          0.492245204
H            0.677485553         -0.806485288         -0.251491785
H           -0.771567435         -0.370321339          0.663540997
H           -0.455463025          0.384104865         -0.904298459
