4
Final structure: -114.382 hartree
C           -0.008219903          0.001513432         -0.000012336
O            1.165448963         -0.217185531          0.002005726
H           -0.413078866          0.993946330         -0.241516865
H           -0.744158543         -0.778341463          0.239531424
