4
Final structure: -437.102 hartree
C           -0.112070464          0.009390335         -0.001454608
S            1.479455648         -0.124286217          0.019465284
H           -0.676252837          0.284983766          0.879092302
H           -0.691135935         -0.170150203         -0.897023577
