6
Final structure: -115.595 hartree
C           -0.361016454         -0.041800082         -0.014883585
O            0.991172403         -0.342561340         -0.277763295
H           -0.525743319          1.028184661          0.097554863
H           -0.615378488         -0.527710958          0.918614091
H           -1.021203408         -0.421909595         -0.792263628
H            1.248726426          0.071972453         -1.097063391
