6
Final structure: -78.0402 hartree
C           -0.658409441         -0.052098041         -0.000253654
C            0.658340446          0.052093348          0.000285704
H           -1.233107725          0.002991221         -0.917716871
H           -1.218032555         -0.196989895          0.916741451
H            1.217966160          0.196981071         -0.916708488
H            1.233036006         -0.002997082          0.917750636
