5
Final structure: -40.1987 hartree
C           -0.000019958          0.000020065          0.000000457
H            0.553419478          0.798583913          0.495870343
H            0.682448748         -0.812369683         -0.253269728
H           -0.777224939         -0.373026499          0.668338004
H           -0.458723264          0.386892539         -0.910937238
