4
Final structure: -113.877 hartree
C           -0.002078809          0.000257671          0.000134902
O            1.167444060         -0.154606030         -0.074670956
H           -0.477660961          0.976990527         -0.183715493
H           -0.687701240         -0.822712428          0.258259492
