4
Final structure: -436.533 hartree
C           -0.108062801          0.008579119          0.001145043
S            1.480576850         -0.117771098         -0.015414317
H           -0.659565316          0.273005591          0.900802798
H           -0.712947885         -0.163874383         -0.886454946
