4
Final structure: -342.476 hartree
P           -0.005027495         -0.001198533          0.553591536
H           -0.665532034         -1.003034231         -0.192762965
H           -0.533697874          1.079974304         -0.187056127
H            1.204255248         -0.075739888         -0.173777079
