4
Final structure: -77.2633 hartree
C           -0.602183685          0.000000001         -0.000014360
C            0.602183652         -0.000000004          0.000014367
H           -1.675311197         -0.000000001         -0.000095468
H            1.675311230          0.000000004          0.000095461
