6
Final structure: -78.5157 hartree
C           -0.662192932         -0.052398595         -0.000248066
C            0.662123782          0.052394344          0.000281479
H           -1.240762790          0.003223052         -0.926428991
H           -1.225552983         -0.198416405          0.925475435
H            1.225485227          0.198410955         -0.925441340
H            1.240692279         -0.003229945          0.926463143
