5
Final structure: -40.4711 hartree
C           -0.000021616          0.000023870         -0.000000510
H            0.557284629          0.804361340          0.499368835
H            0.687389326         -0.818130609         -0.255001354
H           -0.782753541         -0.375704808          0.673116913
H           -0.461998797          0.389550206         -0.917483979
