4
Final structure: -114.43 hartree
C           -0.002047307          0.000251132          0.000131919
O            1.184948077         -0.156963440         -0.075668669
H           -0.485034179          0.989611385         -0.186021977
H           -0.697874978         -0.832966304          0.261566675
