4
Final structure: -437.418 hartree
C           -0.106870968          0.008482683          0.001136941
S            1.488218901         -0.118444859         -0.015457558
H           -0.663705383          0.275800525          0.910477982
H           -0.717646689         -0.165900644         -0.896077962
