4
Final structure: -343.121 hartree
P           -0.005592966         -0.001358903          0.576060303
H           -0.662454473         -0.997049737         -0.200839498
H           -0.529839558          1.074570513         -0.194633595
H            1.197886991         -0.076161874         -0.180587210
