6
Final structure: -115.64 hartree
C           -0.350552069         -0.043627115         -0.017560038
O            1.002245833         -0.349837764         -0.272354578
H           -0.530090059          1.042069639          0.098288775
H           -0.621474726         -0.531733738          0.929478228
H           -1.031745632         -0.425358284         -0.801551366
H            1.248173814          0.074662400         -1.102105966
