4
Final structure: -26.6063 hartree
B           -0.000023865          0.000028362         -0.198508103
H           -0.403842314         -1.039761156          0.220118160
H           -0.171918672          1.000430771          0.425299325
H            0.575784868          0.039302018         -1.240781647
