4
Final structure: -77.3333 hartree
C           -0.598156168         -0.000000108         -0.000014077
C            0.598156151          0.000000096          0.000014065
H           -1.663878895         -0.000000084         -0.000095024
H            1.663878912          0.000000096          0.000095036
