5
Final structure: -40.5171 hartree
C           -0.000023281          0.000021494          0.000006437
H            0.553239359          0.798674999          0.495552766
H            0.682503061         -0.812133781         -0.253168208
H           -0.776940832         -0.373007368          0.668416102
H           -0.458878305          0.386544654         -0.910807192
