4
Final structure: -114.517 hartree
C           -0.008260508          0.001087622          0.000559547
O            1.179389086         -0.152895510         -0.074933863
H           -0.481874551          0.984677362         -0.185396078
H           -0.689262414         -0.832936701          0.259778343
