4
Final structure: -114.517 hartree
C           -0.008242281          0.001078344          0.000539705
O            1.178887989         -0.156792685         -0.075129589
H           -0.478744546          0.986178472         -0.186032780
H           -0.691909549         -0.830531357          0.260630612
