4
Final structure: -437.473 hartree
C           -0.110941147          0.008833507          0.001114468
S            1.484593998         -0.118581337         -0.014563748
H           -0.660446744          0.274824039          0.903825123
H           -0.713210247         -0.165138503         -0.890296440
