4
Final structure: -437.473 hartree
C           -0.111252792          0.008842317          0.001228318
S            1.484442871         -0.118583533         -0.016043732
H           -0.659367219          0.273959487          0.904813815
H           -0.713826999         -0.164280565         -0.889918998
