4
Final structure: -56.567 hartree
N           -0.002419777         -0.000658094          0.281102946
H           -0.520012933         -0.785244972         -0.100035534
H           -0.419015446          0.844003581         -0.095368747
H            0.941448156         -0.058100515         -0.085698665
