4
Final structure: -343.145 hartree
P           -0.005628976         -0.001371267          0.570425285
H           -0.659569342         -0.992739620         -0.199071955
H           -0.527542340          1.069925551         -0.192785336
H            1.192740653         -0.075814664         -0.178567994
