6
Final structure: -115.739 hartree
C           -0.362814369         -0.041470022         -0.014041912
O            0.999110052         -0.346261569         -0.276653303
H           -0.527106866          1.036737372          0.098173648
H           -0.620134831         -0.529974017          0.926582969
H           -1.026938938         -0.424843100         -0.797669408
H            1.254442110          0.071986475         -1.102196938
