6
Final structure: -115.739 hartree
C           -0.363044372         -0.041397708         -0.014429697
O            0.998791033         -0.347618544         -0.275897890
H           -0.526266121          1.037014281          0.097506130
H           -0.621677336         -0.529389417          0.926063308
H           -1.026859950         -0.424091319         -0.798609340
H            1.255613906          0.071657845         -1.100437457
