4
Final structure: -56.5536 hartree
N           -0.002533903         -0.000620932          0.280172545
H           -0.520302076         -0.784602272         -0.099839967
H           -0.418235320          0.843961732         -0.095327302
H            0.941071299         -0.058738527         -0.085005276
