4
Final structure: -26.5779 hartree
B            0.000005270          0.000010931         -0.198482990
H           -0.407649660         -1.050729364          0.223910463
H           -0.174192747          1.010332479          0.432019850
H            0.581837152          0.040385948         -1.251319589
