4
Final structure: -77.2829 hartree
C           -0.602439848         -0.000000002         -0.000013867
C            0.602439556          0.000000006          0.000013868
H           -1.675015157         -0.000000013         -0.000095632
H            1.675015449          0.000000009          0.000095631
