6
Final structure: -78.5366 hartree
C           -0.662027669         -0.052403361         -0.000162464
C            0.661958499          0.052398648          0.000196090
H           -1.240938482          0.003113344         -0.925866237
H           -1.225487311         -0.198382896          0.925236409
H            1.225419006          0.198376829         -0.925202411
H            1.240868540         -0.003119159          0.925900274
