5
Final structure: -40.4831 hartree
C           -0.000022569          0.000024552         -0.000001034
H            0.557212444          0.804322573          0.499329176
H            0.687360058         -0.818056278         -0.254963929
H           -0.782691046         -0.375688945          0.673064949
H           -0.461958885          0.389498097         -0.917429257
