4
Final structure: -26.6062 hartree
B           -0.000023932          0.000028196         -0.198507802
H           -0.403815535         -1.039719516          0.220089582
H           -0.171917247          1.000377276          0.425279217
H            0.575756730          0.039314038         -1.240733263
