4
Final structure: -77.333 hartree
C           -0.598123041          0.000000059         -0.000013834
C            0.598123037         -0.000000055          0.000013822
H           -1.663736408         -0.000000012         -0.000094930
H            1.663736412          0.000000008          0.000094942
