6
Final structure: -78.5893 hartree
C           -0.660487272         -0.052077726         -0.000425574
C            0.660417961          0.052073414          0.000459013
H           -1.233897723          0.003680480         -0.920050676
H           -1.219330481         -0.197067812          0.918433085
H            1.219262711          0.197062425         -0.918399033
H            1.233827387         -0.003687376          0.920084844
