6
Final structure: -78.5893 hartree
C           -0.660495254         -0.052195914         -0.000779667
C            0.660353252          0.052198191          0.000763885
H           -1.233234114          0.003562102         -0.920707086
H           -1.219626978         -0.197347238          0.917861534
H            1.219599530          0.197336105         -0.917727735
H            1.233196146         -0.003569840          0.920690729
