4
Final structure: -114.516 hartree
C           -0.007436546          0.000971057          0.000488225
O            1.179126960         -0.156818057         -0.075157619
H           -0.479338200          0.985701130         -0.185866309
H           -0.692360601         -0.829921357          0.260543651
