4
Final structure: -437.473 hartree
C           -0.111104580          0.008830219          0.001226253
S            1.484448902         -0.118582958         -0.016037836
H           -0.659452278          0.273929240          0.904674218
H           -0.713896183         -0.164238796         -0.889783231
