4
Final structure: -56.5653 hartree
N           -0.002487878         -0.000656984          0.285724054
H           -0.519007692         -0.783245286         -0.101576120
H           -0.417747712          0.842151151         -0.096979228
H            0.939243282         -0.058248881         -0.087168706
