4
Final structure: -56.5653 hartree
N           -0.002433007         -0.000649249          0.285761818
H           -0.518939859         -0.783253482         -0.101520975
H           -0.417870105          0.842089730         -0.096955004
H            0.939242971         -0.058186999         -0.087285840
