4
Final structure: -343.145 hartree
P           -0.005636060         -0.001255941          0.570807006
H           -0.659182395         -0.992823046         -0.199049289
H           -0.527842177          1.069542361         -0.193149384
H            1.192660627         -0.075463374         -0.178608332
