4
Final structure: -343.145 hartree
P           -0.005625449         -0.001364856          0.570774245
H           -0.659495365         -0.992642148         -0.199167814
H           -0.527495121          1.069809484         -0.192907370
H            1.192615929         -0.075802481         -0.178699061
