6
Final structure: -115.737 hartree
C           -0.360655590         -0.041701694         -0.014866121
O            0.999791032         -0.346660775         -0.276369090
H           -0.527945478          1.036294899          0.098518749
H           -0.619834957         -0.529620743          0.925834526
H           -1.027535227         -0.424588242         -0.796901383
H            1.252737380          0.072451694         -1.102021625
