6
Final structure: -115.737 hartree
C           -0.360651558         -0.041111394         -0.014810745
O            0.999271334         -0.348350451         -0.276320130
H           -0.526515019          1.037160365          0.097603876
H           -0.620300727         -0.527804324          0.926406172
H           -1.028174674         -0.423600807         -0.796451747
H            1.252927805          0.069881750         -1.102232371
