6
Final structure: -78.5532 hartree
C           -0.661477198         -0.052405502         -0.000040465
C            0.661406467          0.052431179          0.000072876
H           -1.233081367          0.002734979         -0.914745295
H           -1.217371070         -0.196946963          0.914584034
H            1.217302657          0.196977447         -0.914549605
H            1.233008669         -0.002719311          0.914778486
