4
Final structure: -26.5853 hartree
B            0.000007831          0.000003121         -0.198539747
H           -0.401550255         -1.034993694          0.217549731
H           -0.171485871          0.995199608          0.422565220
H            0.573047080          0.039758838         -1.235674525
