6
Final structure: -78.5522 hartree
C           -0.661288499         -0.052382611          0.000007201
C            0.661137372          0.052375254          0.000036485
H           -1.232845074          0.002346204         -0.914571790
H           -1.217114322         -0.196457034          0.914569752
H            1.216965089          0.196448652         -0.914525648
H            1.232690725         -0.002361617          0.914617371
