5
Final structure: -40.4937 hartree
C           -0.000014938          0.000026184          0.000002302
H            0.550776667          0.794832644          0.493501435
H            0.679246375         -0.808494278         -0.252061742
H           -0.773510181         -0.371273665          0.665191463
H           -0.456561425          0.385027637         -0.906626467
