4
Final structure: -114.482 hartree
C           -0.008288116          0.001478430          0.000548825
O            1.181507633         -0.155931400         -0.076588389
H           -0.479900795          0.980107635         -0.183950647
H           -0.689893040         -0.824594893          0.259768082
