4
Final structure: -56.5444 hartree
N           -0.002906510         -0.000771728          0.284888452
H           -0.518071974         -0.779823043         -0.101536119
H           -0.415466226          0.839252695         -0.096942385
H            0.935323602         -0.059173921         -0.086538425
