6
Final structure: -78.5029 hartree
C           -0.664355318         -0.052719671          0.000598281
C            0.664286091          0.052715026         -0.000564612
H           -1.244611199          0.002479387         -0.921772790
H           -1.226987585         -0.198662232          0.923972993
H            1.226919242          0.198656067         -0.923939045
H            1.244541353         -0.002485172          0.921806833
