5
Final structure: -40.4649 hartree
C           -0.000022046          0.000013877          0.000005186
H            0.556006522          0.802171473          0.498103217
H            0.685503054         -0.816075999         -0.254486464
H           -0.780743017         -0.374704851          0.671407530
H           -0.460844511          0.388695500         -0.915029564
