4
Final structure: -114.418 hartree
C           -0.006260743          0.000828882          0.000367875
O            1.190439180         -0.158530732         -0.075086335
H           -0.484583980          0.992932075         -0.187288607
H           -0.699602845         -0.835297451          0.262015016
