4
Final structure: -437.272 hartree
C           -0.111331810          0.008853011          0.001239605
S            1.497912922         -0.119281310         -0.016461795
H           -0.665824164          0.275475069          0.909778897
H           -0.720761085         -0.165109064         -0.894477303
