4
Final structure: -56.5122 hartree
N           -0.002626466         -0.000626957          0.293481377
H           -0.521038912         -0.786413737         -0.104176094
H           -0.419392348          0.845530411         -0.099805041
H            0.943057725         -0.058489716         -0.089500242
