4
Final structure: -342.99 hartree
P           -0.005172191         -0.001118042          0.592745944
H           -0.657384936         -0.993162322         -0.205142433
H           -0.529060382          1.067933729         -0.200253383
H            1.191617503         -0.073653365         -0.187350128
