6
Final structure: -115.633 hartree
C           -0.362681593         -0.040660302         -0.014358181
O            1.007405746         -0.352730920         -0.274064586
H           -0.529839331          1.044048122          0.099739695
H           -0.622423397         -0.530788687          0.931746571
H           -1.034964661         -0.425463594         -0.800188082
H            1.259060396          0.071770519         -1.108680362
