4
Final structure: -26.4003 hartree
B            0.000009773         -0.000001854         -0.198462079
H           -0.402231901         -1.036615005          0.218280644
H           -0.172258159          0.996909243          0.423255855
H            0.574480302          0.039707734         -1.236945899
