4
Final structure: -76.8514 hartree
C           -0.590168127         -0.000000058         -0.000015385
C            0.590167888          0.000000031          0.000015148
H           -1.644091516         -0.000000066         -0.000093414
H            1.644091280          0.000000005          0.000093219
