4
Final structure: -113.915 hartree
C           -0.005523631          0.000713580          0.000355489
O            1.160492126         -0.153684834         -0.074225980
H           -0.473072414          0.971097703         -0.182769955
H           -0.681896594         -0.818197185          0.256649660
