6
Final structure: -115.093 hartree
C           -0.358830227         -0.042543815         -0.014949531
O            0.982772085         -0.335825435         -0.284198019
H           -0.524343277          1.024500931          0.096782084
H           -0.613217696         -0.526953059          0.916239986
H           -1.018235810         -0.420717359         -0.789953797
H            1.248412180          0.067704458         -1.089731710
