4
Final structure: -26.5958 hartree
B           -0.000007533          0.000032108         -0.198504062
H           -0.403736508         -1.040912923          0.220042143
H           -0.171916669          1.000791017          0.426499735
H            0.575660726          0.040089793         -1.241910082
