6
Final structure: -78.5873 hartree
C           -0.664796238         -0.052698336          0.000580472
C            0.664726881          0.052693762         -0.000546846
H           -1.244579806          0.002253335         -0.918477276
H           -1.227092716         -0.198204050          0.920630398
H            1.227024519          0.198198146         -0.920596415
H            1.244509944         -0.002259453          0.918511329
