4
Final structure: -114.538 hartree
C           -0.007169477          0.000927621          0.000462280
O            1.190542334         -0.157851523         -0.076285571
H           -0.485187442          0.989724611         -0.185835083
H           -0.698193802         -0.832867936          0.261666321
