4
Final structure: -56.5683 hartree
N           -0.002698261         -0.000617941          0.288500888
H           -0.522845772         -0.787230795         -0.102749793
H           -0.419139010          0.847539417         -0.098267565
H            0.944683042         -0.059690680         -0.087483530
