6
Final structure: -115.747 hartree
C           -0.370139753         -0.039876140         -0.012407848
O            1.011986673         -0.351236416         -0.275497480
H           -0.533785376          1.042000981          0.099908524
H           -0.623266049         -0.531190864          0.931042624
H           -1.035491675         -0.425391665         -0.798872004
H            1.267253339          0.071869243         -1.109978762
