6
Final structure: -78.5911 hartree
C           -0.653887796         -0.081301658          0.051228044
C            0.653818308          0.081295357         -0.051193521
H           -1.295741512         -0.083315788         -0.821129528
H           -1.135232553         -0.218925851          1.011585935
H            1.135162095          0.218919784         -1.011552433
H            1.295674041          0.083311561          0.821163163
