5
Final structure: -40.5202 hartree
C            0.000051094          0.000452013         -0.000418176
H            0.517837202          0.826510379          0.482199247
H            0.645326734         -0.875408760         -0.011261500
H           -0.909512098         -0.227919195          0.551014079
H           -0.253802931          0.276465562         -1.021533745
