4
Final structure: -114.511 hartree
C           -0.005846424         -0.000018516         -0.000004889
O            1.190272427          0.000037794          0.000078330
H           -0.592238625          0.897799678         -0.270354541
H           -0.592195755         -0.897886184          0.270289048
