4
Final structure: -437.478 hartree
C           -0.109833320         -0.000009576          0.000016731
S            1.486082825          0.000111568         -0.000019538
H           -0.688123099          0.265600139          0.882303024
H           -0.688130542         -0.265764424         -0.882220814
