4
Final structure: -56.5645 hartree
N            0.013201820         -0.008676911          0.285247658
H           -0.602229636         -0.718386727         -0.089315199
H           -0.329523103          0.880128257         -0.054373215
H            0.918550919         -0.153064619         -0.141559243
