6
Final structure: -115.735 hartree
C           -0.337184457         -0.038945345          0.014381519
O            0.985814507         -0.342064642         -0.373509344
H           -0.502867431          1.038057989          0.122204847
H           -0.499958541         -0.504780862          0.984826364
H           -1.078316919         -0.439707811         -0.684903221
H            1.149070003          0.053615808         -1.228805111
