4
Final structure: -26.5968 hartree
B           -0.000245639         -0.000173817         -0.198557509
H           -0.355553399         -1.102270031          0.139178299
H           -0.261272824          0.955357158          0.489845699
H            0.617071877          0.147086684         -1.224338754
