4
Final structure: -77.3049 hartree
C           -0.603706070          0.000000002         -0.000014122
C            0.603706013         -0.000000002          0.000014123
H           -1.676926546          0.000000005         -0.000096374
H            1.676926603         -0.000000005          0.000096373
