5
Final structure: -40.5025 hartree
C            0.000038997          0.000411572         -0.000333269
H            0.522309795          0.833674981          0.488534382
H            0.651305077         -0.883911845         -0.011429631
H           -0.919212316         -0.230555836          0.554472738
H           -0.254541552          0.280481126         -1.031244316
