4
Final structure: -114.473 hartree
C           -0.002017651          0.000211535          0.000069972
O            1.185523191         -0.142122958         -0.106682363
H           -0.498917871          0.990935539         -0.139944598
H           -0.684596056         -0.849091342          0.246564938
