4
Final structure: -437.452 hartree
C           -0.107147092          0.000010257          0.000019240
S            1.495042589          0.000240449          0.000013005
H           -0.694019090          0.271158291          0.890129550
H           -0.693880535         -0.271471291         -0.890082392
