4
Final structure: -343.14 hartree
P           -0.004324475         -0.000016792          0.578767072
H           -0.659619003         -0.997459105         -0.198223270
H           -0.531974241          1.071542493         -0.196581410
H            1.195917714         -0.074066597         -0.183962392
