6
Final structure: -115.691 hartree
C           -0.329774095         -0.042210779          0.011314915
O            0.993286016         -0.339177721         -0.369336112
H           -0.513637119          1.043834653          0.119925743
H           -0.497552574         -0.509200437          0.992365025
H           -1.082059952         -0.451207747         -0.689997405
H            1.146294884          0.064137170         -1.230077111
