4
Final structure: -77.2589 hartree
C           -0.593329654         -0.000000183         -0.000011315
C            0.593329593          0.000000154          0.000011488
H           -1.652786225          0.000000066         -0.000095059
H            1.652786167         -0.000000065          0.000095177
