4
Final structure: -56.5134 hartree
N           -0.002178285         -0.000522109          0.271732374
H           -0.516098880         -0.782908721         -0.096489475
H           -0.419128826          0.839515754         -0.092010222
H            0.937512545         -0.055696200         -0.082875196
