6
Final structure: -115.641 hartree
C           -0.360973653         -0.042083213         -0.014799451
O            0.990270999         -0.340457453         -0.281040418
H           -0.526928371          1.029449803          0.097662069
H           -0.617461592         -0.527979209          0.920138288
H           -1.022901411         -0.422315483         -0.793024648
H            1.251812294          0.069846969         -1.095782326
