4
Final structure: -437.369 hartree
C           -0.111330688          0.009033859          0.000866168
S            1.484913222         -0.118699107         -0.017110012
H           -0.659335429          0.274631731          0.907074272
H           -0.714796854         -0.164319213         -0.892363840
