4
Final structure: -56.4935 hartree
N           -0.002295932         -0.000550462          0.278284389
H           -0.519073814         -0.783792747         -0.098994334
H           -0.418090795          0.842633954         -0.094555069
H            0.939961111         -0.058056703         -0.084614402
