4
Final structure: -343.088 hartree
P           -0.005634081         -0.001488900          0.563488441
H           -0.664466273         -1.000362289         -0.196905965
H           -0.531645130          1.077903898         -0.190350187
H            1.201630026         -0.076225146         -0.176100159
