6
Final structure: -115.602 hartree
C           -0.362434109         -0.041917536         -0.014134284
O            0.994901246         -0.342568880         -0.279191139
H           -0.526939308          1.037770011          0.098568744
H           -0.618475537         -0.532160863          0.927800956
H           -1.026549259         -0.426360390         -0.799392423
H            1.255579392          0.069834319         -1.097833088
