4
Final structure: -77.2032 hartree
C           -0.595703302         -0.000000074         -0.000010924
C            0.595703312          0.000000085          0.000010920
H           -1.653085308         -0.000000018         -0.000095357
H            1.653085297          0.000000008          0.000095361
