4
Final structure: -77.2032 hartree
C           -0.595706367         -0.000000033         -0.000010943
C            0.595706463          0.000000042          0.000010942
H           -1.653090618         -0.000000002         -0.000095402
H            1.653090522         -0.000000007          0.000095404
