6
Final structure: -78.4504 hartree
C           -0.657193527         -0.051994261          0.000015425
C            0.657124281          0.051989936          0.000017981
H           -1.227521113          0.002975111         -0.911943052
H           -1.211770931         -0.195989745          0.911965890
H            1.211703245          0.195984406         -0.911931869
H            1.227450627         -0.002982043          0.911977285
