6
Final structure: -78.4504 hartree
C           -0.657195019         -0.051966318         -0.000500788
C            0.657115186          0.051964756          0.000536974
H           -1.226782711          0.002965838         -0.912942696
H           -1.212530680         -0.195893173          0.911013528
H            1.212456228          0.195880753         -0.910949254
H            1.226729579         -0.002968451          0.912943896
