5
Final structure: -40.4374 hartree
C           -0.000026889         -0.000004011          0.000008547
H            0.549572953          0.792926594          0.491979007
H            0.677511494         -0.806723055         -0.250829278
H           -0.771965121         -0.369791282          0.663576437
H           -0.455192436          0.383691753         -0.904734808
