5
Final structure: -40.4374 hartree
C           -0.000020779          0.000016121          0.000003760
H            0.549483314          0.792806058          0.492267077
H            0.677505700         -0.806509866         -0.251504915
H           -0.771592415         -0.370336588          0.663558373
H           -0.455475818          0.384124274         -0.904324390
