4
Final structure: -114.379 hartree
C           -0.006576674          0.000878903          0.000417124
O            1.173556114         -0.156005766         -0.074556597
H           -0.478016184          0.976746289         -0.184108689
H           -0.688971643         -0.821686653          0.258256111
