4
Final structure: -437.101 hartree
C           -0.111455768          0.008835559          0.001162294
S            1.480246663         -0.117669759         -0.015087007
H           -0.658039638          0.271845392          0.896842682
H           -0.710755397         -0.163073487         -0.882838566
