4
Final structure: -437.101 hartree
C           -0.111450297          0.008842947          0.001197026
S            1.480246173         -0.117741626         -0.015657349
H           -0.657682256          0.271828993          0.897099713
H           -0.711117759         -0.162992609         -0.882559987
