4
Final structure: -56.4849 hartree
N           -0.002568399         -0.000556520          0.284007012
H           -0.515495456         -0.777017709         -0.100861969
H           -0.414047868          0.835975634         -0.096816419
H            0.932111724         -0.058401405         -0.086328624
