4
Final structure: -56.4849 hartree
N           -0.002521958         -0.000629102          0.284039507
H           -0.515328136         -0.777086868         -0.100983894
H           -0.414222097          0.835896678         -0.096527886
H            0.932072191         -0.058180707         -0.086527727
