4
Final structure: -342.841 hartree
P           -0.004885899         -0.001057175          0.567488175
H           -0.656525822         -0.990731012         -0.196668675
H           -0.527562321          1.065907712         -0.191747962
H            1.188974036         -0.074119525         -0.179071538
