6
Final structure: -115.591 hartree
C           -0.356955416         -0.042043727         -0.016145281
O            0.992134872         -0.344427319         -0.276833924
H           -0.526253432          1.028091084          0.096582579
H           -0.615191038         -0.526080266          0.917806667
H           -1.022512381         -0.420744806         -0.790794692
H            1.245334554          0.071380172         -1.096420295
