4
Final structure: -26.5392 hartree
B            0.000006496          0.000022598         -0.198470543
H           -0.400726820         -1.033805404          0.217125391
H           -0.172005745          0.994039419          0.421576248
H            0.572726086          0.039743382         -1.234103361
