4
Final structure: -77.2041 hartree
C           -0.595736829         -0.000000038         -0.000011081
C            0.595735265          0.000000042          0.000011090
H           -1.653220122         -0.000000011         -0.000095459
H            1.653221686          0.000000006          0.000095450
