4
Final structure: -77.2041 hartree
C           -0.595737353          0.000000002         -0.000011076
C            0.595737312         -0.000000001          0.000011077
H           -1.653225149         -0.000000002         -0.000095447
H            1.653225190          0.000000001          0.000095447
