6
Final structure: -78.4511 hartree
C           -0.657466720         -0.052063671         -0.000114447
C            0.657386457          0.052064886          0.000134152
H           -1.227339620          0.002794450         -0.912343876
H           -1.211850754         -0.195965311          0.911945196
H            1.211803822          0.195965316         -0.911815604
H            1.227259399         -0.002812265          0.912296239
