4
Final structure: -114.382 hartree
C           -0.008306388          0.001102201          0.000524244
O            1.172847021         -0.155090302         -0.075012218
H           -0.477412612          0.977313327         -0.183955022
H           -0.687136409         -0.823392453          0.258450945
