4
Final structure: -114.382 hartree
C           -0.008243669          0.001070449          0.000510299
O            1.172769681         -0.156196803         -0.074588967
H           -0.476461786          0.977756901         -0.183952391
H           -0.688072613         -0.822697774          0.258039007
