4
Final structure: -114.382 hartree
C           -0.008253601          0.001084774          0.000516683
O            1.172821564         -0.155725253         -0.074655840
H           -0.476869659          0.977525642         -0.184102673
H           -0.687706691         -0.822952389          0.258249778
