4
Final structure: -437.102 hartree
C           -0.111945680          0.008885908          0.001229429
S            1.480041571         -0.117681123         -0.015886642
H           -0.657174038          0.271576339          0.897432356
H           -0.710925992         -0.162843419         -0.882695740
