4
Final structure: -56.4885 hartree
N           -0.002540954         -0.000661815          0.276958153
H           -0.517395516         -0.779640973         -0.098928931
H           -0.415407838          0.839036332         -0.094124339
H            0.935344308         -0.058733544         -0.083904883
