4
Final structure: -342.842 hartree
P           -0.004874198         -0.001045569          0.566293213
H           -0.656908936         -0.991288347         -0.196259982
H           -0.527858291          1.066512277         -0.191364212
H            1.189641420         -0.074178362         -0.178669019
