4
Final structure: -342.842 hartree
P           -0.004908466         -0.001004927          0.566301966
H           -0.656902488         -0.991322374         -0.196189991
H           -0.527783024          1.066510798         -0.191455852
H            1.189593973         -0.074183498         -0.178656123
