4
Final structure: -26.5412 hartree
B            0.000001001          0.000009921         -0.198479830
H           -0.400709714         -1.032860553          0.216783662
H           -0.171153738          0.993190168          0.421309806
H            0.571862467          0.039660459         -1.233485904
