6
Final structure: -78.456 hartree
C           -0.657062892         -0.052039439          0.000082489
C            0.656993556          0.052035129         -0.000049073
H           -1.227152951          0.002746367         -0.911384020
H           -1.211213145         -0.195908301          0.911670421
H            1.211145450          0.195903023         -0.911636376
H            1.227082567         -0.002753373          0.911418219
