6
Final structure: -78.456 hartree
C           -0.657107240         -0.052040718         -0.000148795
C            0.656917014          0.052029015          0.000225052
H           -1.226705620          0.002715865         -0.911958857
H           -1.211389182         -0.195823747          0.911302018
H            1.211358718          0.195805611         -0.911202648
H            1.226718894         -0.002702621          0.911884891
