5
Final structure: -40.4405 hartree
C           -0.000036201          0.000053148          0.000017839
H            0.549033870          0.792416590          0.492170631
H            0.677210063         -0.805972696         -0.251263667
H           -0.771263707         -0.370282053          0.662987199
H           -0.455044023          0.383885010         -0.903912096
