4
Final structure: -114.389 hartree
C           -0.007081365          0.000914435          0.000453378
O            1.172008159         -0.154926561         -0.075164153
H           -0.477700822          0.976585464         -0.183494838
H           -0.687234360         -0.822640565          0.258213561
