4
Final structure: -437.108 hartree
C           -0.111459518          0.008860157          0.001215932
S            1.479210054         -0.117743195         -0.015597181
H           -0.657207515          0.271948567          0.896601105
H           -0.710547159         -0.163127824         -0.882140452
