4
Final structure: -437.108 hartree
C           -0.111471959          0.008833749          0.001191984
S            1.479232772         -0.117493943         -0.015436495
H           -0.657330761          0.271732903          0.896575853
H           -0.710434190         -0.163135004         -0.882251939
