4
Final structure: -56.4911 hartree
N           -0.002567765         -0.000610368          0.280280701
H           -0.516373376         -0.777538909         -0.099855460
H           -0.414050471          0.837042483         -0.095400368
H            0.932991612         -0.058893206         -0.085024873
