4
Final structure: -56.4911 hartree
N           -0.002542793         -0.000811122          0.280286504
H           -0.516958980         -0.776994349         -0.100349257
H           -0.413362280          0.837323979         -0.094788653
H            0.932864053         -0.059518508         -0.085148594
