4
Final structure: -342.845 hartree
P           -0.005433745         -0.001270250          0.566016234
H           -0.657624098         -0.990120027         -0.197238768
H           -0.526308136          1.066817874         -0.191343089
H            1.189365973         -0.075427598         -0.177434377
