4
Final structure: -77.3137 hartree
C           -0.595464360         -0.000000003         -0.000014035
C            0.595464312         -0.000000001          0.000014035
H           -1.657325254         -0.000000017         -0.000094470
H            1.657325302          0.000000021          0.000094470
