5
Final structure: -40.5048 hartree
C           -0.000020150          0.000014767          0.000003277
H            0.551569636          0.795786439          0.494164565
H            0.680058987         -0.809577986         -0.252456163
H           -0.774543352         -0.371735020          0.666042390
H           -0.457165120          0.385611798         -0.907754164
