4
Final structure: -114.5 hartree
C           -0.005988477          0.000789796          0.000363292
O            1.176167771         -0.156378466         -0.074581315
H           -0.479028494          0.981831306         -0.185048638
H           -0.691159187         -0.826309862          0.259274608
