4
Final structure: -56.5541 hartree
N           -0.002516004         -0.000638424          0.281329864
H           -0.518914288         -0.782275044         -0.100197495
H           -0.416927409          0.841601369         -0.095616549
H            0.938357701         -0.058687901         -0.085515820
