6
Final structure: -115.719 hartree
C           -0.358287942         -0.041900721         -0.015568397
O            0.996116179         -0.345721151         -0.277445575
H           -0.528927826          1.032206887          0.099133954
H           -0.618433187         -0.527612041          0.922027585
H           -1.027438306         -0.422075116         -0.792549520
H            1.253528242          0.071277280         -1.101402990
