4
Final structure: -77.2486 hartree
C           -0.608515749          0.000000002         -0.000014462
C            0.608507415         -0.000000138          0.000014380
H           -1.680667956          0.000000119         -0.000096058
H            1.680659667         -0.000000227          0.000095962
