6
Final structure: -78.4939 hartree
C           -0.666678893         -0.052844435         -0.000059398
C            0.666693377          0.052850673          0.000071588
H           -1.244528078          0.002458402         -0.926159928
H           -1.228754515         -0.198540652          0.925939865
H            1.228781359          0.198533047         -0.925923070
H            1.244532026         -0.002440967          0.926178541
