5
Final structure: -40.4573 hartree
C           -0.000009433          0.000016901          0.000004763
H            0.557257118          0.804275178          0.499371100
H            0.687345490         -0.818069522         -0.255019781
H           -0.782675163         -0.375711725          0.673068386
H           -0.461957893          0.389560962         -0.917389959
