4
Final structure: -56.4917 hartree
N           -0.002863095         -0.000732084          0.315516789
H           -0.515436450         -0.776262502         -0.111557705
H           -0.413192035          0.835702511         -0.107073496
H            0.931619519         -0.058870428         -0.096723384
