4
Final structure: -77.368 hartree
C           -0.599464669         -0.000000000         -0.000013508
C            0.599454125         -0.000000008          0.000013501
H           -1.663058006          0.000000008         -0.000095022
H            1.663068550          0.000000000          0.000095028
