6
Final structure: -78.6238 hartree
C           -0.656662266         -0.051937533         -0.000462682
C            0.656787759          0.051908642          0.000538491
H           -1.228059452          0.003572810         -0.918823794
H           -1.213687360         -0.196669076          0.916938081
H            1.213502573          0.196747032         -0.917068503
H            1.227911331         -0.003638471          0.918980067
