5
Final structure: -40.526 hartree
C           -0.000021815          0.000022933         -0.000002658
H            0.551709309          0.796256278          0.494405501
H            0.680466943         -0.809937023         -0.252480920
H           -0.774912831         -0.371947068          0.666347584
H           -0.457341606          0.385704878         -0.908269603
