4
Final structure: -114.571 hartree
C           -0.001725303          0.000206031          0.000116034
O            1.175809681         -0.155529848         -0.075189869
H           -0.481718392          0.981180322         -0.184231656
H           -0.692374374         -0.825923732          0.259313440
