4
Final structure: -114.571 hartree
C           -0.001772873          0.000215805          0.000112580
O            1.175748622         -0.155833108         -0.075159036
H           -0.481425346          0.981308483         -0.184330896
H           -0.692558791         -0.825758406          0.259385299
