4
Final structure: -437.707 hartree
C           -0.106410202          0.008398257          0.001158811
S            1.477086187         -0.117419392         -0.015349069
H           -0.658584190          0.273634775          0.903040327
H           -0.712095933         -0.164675935         -0.888770666
