4
Final structure: -56.5813 hartree
N           -0.002784107         -0.000679307          0.302820752
H           -0.512550969         -0.771725847         -0.107398750
H           -0.410844804          0.830930900         -0.102847773
H            0.926179881         -0.058525745         -0.092574229
