4
Final structure: -56.5813 hartree
N           -0.003358891         -0.000955225          0.302624365
H           -0.512222371         -0.771773042         -0.109136043
H           -0.410723069          0.831080009         -0.102848266
H            0.926304332         -0.058351743         -0.090640056
