4
Final structure: -343.334 hartree
P           -0.005503872         -0.001218039          0.578884820
H           -0.653108175         -0.983383803         -0.201412290
H           -0.522781043          1.059678951         -0.195598328
H            1.181393085         -0.075077109         -0.181874201
