6
Final structure: -115.788 hartree
C           -0.343373027         -0.043759505         -0.021191976
O            0.987983488         -0.346521884         -0.269843503
H           -0.526252968          1.031299658          0.095090099
H           -0.616148810         -0.525583314          0.917076833
H           -1.022774379         -0.420966760         -0.795038949
H            1.237122856          0.071706943         -1.091897447
