4
Final structure: -26.5996 hartree
B           -0.000005159          0.000022760         -0.198493734
H           -0.402214943         -1.036904215          0.218429384
H           -0.171464188          0.996996564          0.423957622
H            0.573684305          0.039884886         -1.237765537
