4
Final structure: -77.3208 hartree
C           -0.597905518         -0.000000114         -0.000013571
C            0.597905467          0.000000105          0.000013577
H           -1.659497867         -0.000000072         -0.000094937
H            1.659497918          0.000000082          0.000094931
