5
Final structure: -40.5076 hartree
C           -0.000026240          0.000026009          0.000001860
H            0.551797461          0.796569784          0.494425766
H            0.680720645         -0.810100060         -0.252484620
H           -0.775058860         -0.372051245          0.666591559
H           -0.457533003          0.385655510         -0.908534660
