4
Final structure: -437.436 hartree
C           -0.111500204          0.008808247          0.001212139
S            1.488977034         -0.117982509         -0.015695335
H           -0.662023945          0.272980542          0.900772214
H           -0.715457024         -0.163868574         -0.886209616
