6
Final structure: -115.722 hartree
C           -0.364374099         -0.040910969         -0.014118744
O            0.999461980         -0.345693154         -0.277440067
H           -0.530066742          1.034209775          0.098606203
H           -0.619719042         -0.528478629          0.923889498
H           -1.028260063         -0.423228980         -0.794580495
H            1.259515125          0.070277096         -1.102161339
