4
Final structure: -26.5804 hartree
B           -0.000030953          0.000037946         -0.198520474
H           -0.403279163         -1.035483447          0.220101972
H           -0.170009754          0.997947779          0.422324101
H            0.573314427          0.037488195         -1.237754035
