5
Final structure: -40.4688 hartree
C           -0.000012622          0.000008701          0.000035136
H            0.550652591          0.794593907          0.493076026
H            0.679030406         -0.808115087         -0.252036168
H           -0.773038546         -0.371120190          0.665157625
H           -0.456700954          0.384723711         -0.906128990
