4
Final structure: -437.396 hartree
C           -0.110292880          0.008754759          0.001229232
S            1.477355217         -0.118374223         -0.016231219
H           -0.656437735          0.271992893          0.898309526
H           -0.710943155         -0.162486871         -0.883215762
