4
Final structure: -56.5121 hartree
N           -0.001564801         -0.000300591          0.275722946
H           -0.514479941         -0.781261757         -0.097373714
H           -0.417810571          0.837887051         -0.093532571
H            0.936161923         -0.055406566         -0.084529564
