6
Final structure: -115.64 hartree
C           -0.359335434         -0.042575871         -0.014975993
O            0.991256059         -0.340890986         -0.279977598
H           -0.527383798          1.028811669          0.098130546
H           -0.617245300         -0.528157768          0.919939130
H           -1.022705282         -0.422575216         -0.792439079
H            1.250954533          0.069922773         -1.094930896
