4
Final structure: -26.5575 hartree
B            0.000003887          0.000012199         -0.198481087
H           -0.407394100         -1.050074020          0.223664583
H           -0.174093459          1.009721290          0.431605260
H            0.581483687          0.040340526         -1.250661022
