4
Final structure: -77.2346 hartree
C           -0.604396957          0.000000014         -0.000012109
C            0.604396851         -0.000000026          0.000012125
H           -1.676064637         -0.000000003         -0.000096280
H            1.676064742          0.000000015          0.000096264
