6
Final structure: -78.4927 hartree
C           -0.664133496         -0.052669903          0.000044534
C            0.664064332          0.052665190         -0.000010965
H           -1.242470210          0.002609058         -0.923759601
H           -1.226440950         -0.198433489          0.923901371
H            1.226372785          0.198427389         -0.923867438
H            1.242400121         -0.002614841          0.923793759
