5
Final structure: -40.4611 hartree
C           -0.000022512          0.000023713         -0.000000808
H            0.555960967          0.802460696          0.498194210
H            0.685769802         -0.816189231         -0.254412745
H           -0.780894916         -0.374831347          0.671530177
H           -0.460913339          0.388636168         -0.915310929
