4
Final structure: -437.284 hartree
C           -0.110800904          0.008832864          0.001182714
S            1.491105868         -0.119234758         -0.015549313
H           -0.663035638          0.276236189          0.911178278
H           -0.717273463         -0.165896590         -0.896732277
