4
Final structure: -56.5004 hartree
N           -0.002692164         -0.000593228          0.290404610
H           -0.519989562         -0.782760777         -0.103226635
H           -0.416694794          0.842814842         -0.098940786
H            0.939376519         -0.059460837         -0.088237189
