4
Final structure: -343.011 hartree
P           -0.005781265         -0.001248558          0.584275902
H           -0.661762947         -0.995773821         -0.203508804
H           -0.528981080          1.073363480         -0.197673301
H            1.196525287         -0.076341102         -0.183093797
