4
Final structure: -26.5974 hartree
B            0.000001810          0.000006193         -0.198454903
H           -0.392759410         -1.035528824          0.232895895
H           -0.237393552          1.012157252          0.377632405
H            0.630151169          0.023365373         -1.205945662
