5
Final structure: -40.5044 hartree
C           -0.000021418          0.000013582          0.000005903
H            0.552307178          0.796857795          0.494786557
H            0.680970772         -0.810638967         -0.252799415
H           -0.775548476         -0.372230543          0.666954093
H           -0.457808054          0.386098131         -0.908947232
