4
Final structure: -114.495 hartree
C           -0.007340860          0.001358201         -0.000009027
O            1.172636727         -0.219556655          0.002284715
H           -0.415268853          1.000615271         -0.241775708
H           -0.750035395         -0.782484046          0.239507967
