4
Final structure: -56.5536 hartree
N            0.023662259          0.000598654          0.279270128
H           -0.475815237         -0.816713629         -0.051677343
H           -0.478577301          0.814885314         -0.054939362
H            0.930730280          0.001229661         -0.172653421
