4
Final structure: -343.118 hartree
P            0.058688504         -0.000007960          0.572564553
H           -0.612737473         -1.032805256         -0.130050234
H           -0.612719160          1.032819585         -0.130023313
H            1.166768124         -0.000006369         -0.312491032
