6
Final structure: -115.714 hartree
C           -0.364964532         -0.041202795         -0.013634388
O            1.000443481         -0.345456645         -0.278247853
H           -0.530647045          1.034420400          0.100017799
H           -0.618848907         -0.530260503          0.924703744
H           -1.028856740         -0.423810274         -0.794789951
H            1.259430902          0.072484956         -1.103854295
